
#======================================================================
# CRYSTAL DATA
#----------------------------------------------------------------------
data_VESTA_phase_1

_chemical_name_common                  ' O Pt Ti                              '
_cell_length_a                         17.755301
_cell_length_b                         26.020599
_cell_length_c                         40.556099
_cell_angle_alpha                      90.000000
_cell_angle_beta                       90.000000
_cell_angle_gamma                      90.000000
_cell_volume                           18737.062149
_space_group_name_H-M_alt              'P 1'
_space_group_IT_number                 1

loop_
_space_group_symop_operation_xyz
   'x, y, z'

loop_
   _atom_site_label
   _atom_site_occupancy
   _atom_site_fract_x
   _atom_site_fract_y
   _atom_site_fract_z
   _atom_site_adp_type
   _atom_site_U_iso_or_equiv
   _atom_site_type_symbol
   O1         1.0     0.000000     0.610800     0.111590    Uiso  ? O
   O2         1.0     0.838923     0.494081     0.360183    Uiso  ? O
   O3         1.0     0.843632     0.355078     0.279945    Uiso  ? O
   O4         1.0     0.835715     0.481788     0.194333    Uiso  ? O
   O5         1.0     0.833330     0.360800     0.111590    Uiso  ? O
   O6         1.0     0.833330     0.485800     0.031390    Uiso  ? O
   O7         1.0     0.923368     0.317401     0.397601    Uiso  ? O
   O8         1.0     0.923568     0.428945     0.314814    Uiso  ? O
   O9         1.0     0.925610     0.309644     0.227467    Uiso  ? O
   O10        1.0     0.916670     0.436880     0.142970    Uiso  ? O
   O11        1.0     0.916670     0.311880     0.062770    Uiso  ? O
   O12        1.0     0.155772     0.765141     0.282135    Uiso  ? O
   O13        1.0     0.165722     0.888067     0.371288    Uiso  ? O
   O14        1.0     0.250000     0.811880     0.000000    Uiso  ? O
   O15        1.0     0.833330     0.387960     0.031390    Uiso  ? O
   O16        1.0     0.250000     0.936880     0.080200    Uiso  ? O
   O17        1.0     0.261369     0.936650     0.246947    Uiso  ? O
   O18        1.0     0.232402     0.806224     0.335582    Uiso  ? O
   O19        1.0     0.416670     0.811880     0.062770    Uiso  ? O
   O20        1.0     0.416670     0.936880     0.142970    Uiso  ? O
   O21        1.0     0.408896     0.813268     0.230478    Uiso  ? O
   O22        1.0     0.760379     0.309890     0.330911    Uiso  ? O
   O23        1.0     0.756907     0.432659     0.245783    Uiso  ? O
   O24        1.0     0.755217     0.311764     0.162127    Uiso  ? O
   O25        1.0     0.750000     0.436880     0.080200    Uiso  ? O
   O26        1.0     0.750000     0.311880     0.000000    Uiso  ? O
   O27        1.0     0.660515     0.385538     0.355514    Uiso  ? O
   O28        1.0     0.668569     0.262400     0.275897    Uiso  ? O
   O29        1.0     0.667619     0.391672     0.193378    Uiso  ? O
   O30        1.0     0.251846     0.817389     0.163114    Uiso  ? O
   O31        1.0     0.666670     0.262960     0.111590    Uiso  ? O
   O32        1.0     0.833330     0.262960     0.111590    Uiso  ? O
   O33        1.0     0.844112     0.260101     0.275671    Uiso  ? O
   O34        1.0     0.000000     0.512960     0.111590    Uiso  ? O
   O35        1.0     0.000000     0.637960     0.031390    Uiso  ? O
   O36        1.0    -0.010076     0.742191     0.361666    Uiso  ? O
   O37        1.0    -0.003529     0.620415     0.286077    Uiso  ? O
   O38        1.0     0.004240     0.731430     0.194108    Uiso  ? O
   O39        1.0     0.248473     0.816197     0.229735    Uiso  ? O
   O40        1.0     0.000000     0.735800     0.031390    Uiso  ? O
   O41        1.0     0.091259     0.557097     0.395609    Uiso  ? O
   O42        1.0     0.074622     0.693363     0.318502    Uiso  ? O
   O43        1.0     0.084146     0.560337     0.231037    Uiso  ? O
   O44        1.0     0.083330     0.686880     0.142970    Uiso  ? O
   O45        1.0     0.083330     0.561880     0.062770    Uiso  ? O
   O46        1.0     0.251615     0.939577     0.312064    Uiso  ? O
   O47        1.0     0.831943     0.387657     0.196829    Uiso  ? O
   O48        1.0     0.248772     0.818368     0.400899    Uiso  ? O
   O49        1.0     0.166670     0.860800     0.111590    Uiso  ? O
   O50        1.0     0.174425     0.984567     0.199796    Uiso  ? O
   O51        1.0     0.162127     0.863095     0.281454    Uiso  ? O
   O52        1.0     0.165005     0.981081     0.371899    Uiso  ? O
   O53        1.0     0.166670     0.887960     0.031390    Uiso  ? O
   O54        1.0     0.166670     0.762960     0.111590    Uiso  ? O
   O55        1.0     0.171818     0.891330     0.193089    Uiso  ? O
   O56        1.0     0.910101     0.312062     0.336664    Uiso  ? O
   O57        1.0     0.914767     0.441606     0.251773    Uiso  ? O
   O58        1.0     0.929109     0.312014     0.163228    Uiso  ? O
   O59        1.0     0.916670     0.436880     0.080200    Uiso  ? O
   O60        1.0     0.916670     0.311880     0.000000    Uiso  ? O
   O61        1.0     0.839826     0.392545     0.375524    Uiso  ? O
   O62        1.0     0.166670     0.985800     0.031390    Uiso  ? O
   O63        1.0    -0.007335     0.641588     0.198848    Uiso  ? O
   O64        1.0     0.666670     0.387960     0.031390    Uiso  ? O
   O65        1.0     0.661756     0.360728     0.272263    Uiso  ? O
   O66        1.0     0.500000     0.485800     0.031390    Uiso  ? O
   O67        1.0     0.583544     0.305947     0.389988    Uiso  ? O
   O68        1.0     0.592761     0.433137     0.306730    Uiso  ? O
   O69        1.0     0.577803     0.313883     0.227775    Uiso  ? O
   O70        1.0     0.583330     0.436880     0.142970    Uiso  ? O
   O71        1.0     0.583330     0.311880     0.062770    Uiso  ? O
   O72        1.0     0.330067     0.758274     0.279995    Uiso  ? O
   O73        1.0     0.344710     0.899960     0.371717    Uiso  ? O
   O74        1.0     0.416670     0.811880     0.000000    Uiso  ? O
   O75        1.0     0.416670     0.936880     0.080200    Uiso  ? O
   O76        1.0     0.420374     0.810052     0.163436    Uiso  ? O
   O77        1.0     0.425722     0.936389     0.248625    Uiso  ? O
   O78        1.0     0.394989     0.812809     0.333384    Uiso  ? O
   O79        1.0     0.500000     0.360800     0.111590    Uiso  ? O
   O80        1.0     0.583330     0.811880     0.062770    Uiso  ? O
   O81        1.0     0.579007     0.809448     0.232818    Uiso  ? O
   O82        1.0     0.418311     0.313686     0.329349    Uiso  ? O
   O83        1.0     0.403931     0.435299     0.244408    Uiso  ? O
   O84        1.0     0.414512     0.306459     0.164185    Uiso  ? O
   O85        1.0     0.416670     0.436880     0.080200    Uiso  ? O
   O86        1.0     0.416670     0.311880     0.000000    Uiso  ? O
   O87        1.0     0.327755     0.385868     0.368028    Uiso  ? O
   O88        1.0     0.335730     0.264501     0.280378    Uiso  ? O
   O89        1.0     0.329348     0.385889     0.193249    Uiso  ? O
   O90        1.0     0.333330     0.262960     0.111590    Uiso  ? O
   O91        1.0     0.333330     0.387960     0.031390    Uiso  ? O
   O92        1.0     0.324894     0.479735     0.367143    Uiso  ? O
   O93        1.0     0.332027     0.360052     0.279500    Uiso  ? O
   O94        1.0     0.583330     0.936880     0.142970    Uiso  ? O
   O95        1.0     0.690471     0.494163     0.354387    Uiso  ? O
   O96        1.0     0.494852     0.483795     0.196222    Uiso  ? O
   O97        1.0     0.488943     0.485657     0.352591    Uiso  ? O
   O98        1.0     0.662991     0.483181     0.201693    Uiso  ? O
   O99        1.0     0.666670     0.360800     0.111590    Uiso  ? O
   O100       1.0     0.666670     0.485800     0.031390    Uiso  ? O
   O101       1.0     0.749044     0.309926     0.394926    Uiso  ? O
   O102       1.0     0.750359     0.428024     0.308469    Uiso  ? O
   O103       1.0     0.754385     0.316249     0.228421    Uiso  ? O
   O104       1.0     0.750000     0.436880     0.142970    Uiso  ? O
   O105       1.0     0.750000     0.311880     0.062770    Uiso  ? O
   O106       1.0     0.417463     0.938707     0.314363    Uiso  ? O
   O107       1.0     0.403251     0.813450     0.401081    Uiso  ? O
   O108       1.0     0.333330     0.985800     0.031390    Uiso  ? O
   O109       1.0     0.333330     0.860800     0.111590    Uiso  ? O
   O110       1.0     0.335218     0.985305     0.193780    Uiso  ? O
   O111       1.0     0.508817     0.363228     0.279088    Uiso  ? O
   O112       1.0     0.325122     0.864486     0.280662    Uiso  ? O
   O113       1.0     0.333330     0.887960     0.031390    Uiso  ? O
   O114       1.0     0.333330     0.762960     0.111590    Uiso  ? O
   O115       1.0     0.338012     0.891020     0.197326    Uiso  ? O
   O116       1.0     0.591961     0.309517     0.331137    Uiso  ? O
   O117       1.0     0.573566     0.421748     0.245100    Uiso  ? O
   O118       1.0     0.583506     0.308614     0.167919    Uiso  ? O
   O119       1.0     0.583330     0.436880     0.080200    Uiso  ? O
   O120       1.0     0.583330     0.311880     0.000000    Uiso  ? O
   O121       1.0     0.487583     0.387108     0.364467    Uiso  ? O
   O122       1.0     0.496825     0.264326     0.277465    Uiso  ? O
   O123       1.0     0.497297     0.392841     0.200184    Uiso  ? O
   O124       1.0     0.500000     0.262960     0.111590    Uiso  ? O
   O125       1.0     0.500000     0.387960     0.031390    Uiso  ? O
   O126       1.0     0.333978     0.986115     0.366657    Uiso  ? O
   O127       1.0     0.334061     0.485845     0.194434    Uiso  ? O
   O128       1.0    -0.005527     0.518619     0.287868    Uiso  ? O
   O129       1.0     0.083330     0.561880     0.000000    Uiso  ? O
   O130       1.0     0.585418     0.560624     0.165554    Uiso  ? O
   O131       1.0     0.583330     0.686880     0.080200    Uiso  ? O
   O132       1.0     0.583330     0.561880     0.000000    Uiso  ? O
   O133       1.0     0.482590     0.631780     0.375659    Uiso  ? O
   O134       1.0     0.499314     0.512092     0.273070    Uiso  ? O
   O135       1.0     0.498797     0.641958     0.205539    Uiso  ? O
   O136       1.0     0.500000     0.512960     0.111590    Uiso  ? O
   O137       1.0     0.500000     0.637960     0.031390    Uiso  ? O
   O138       1.0     0.486557     0.730914     0.369860    Uiso  ? O
   O139       1.0     0.503148     0.609620     0.275862    Uiso  ? O
   O140       1.0     0.499194     0.737433     0.197971    Uiso  ? O
   O141       1.0     0.500000     0.610800     0.111590    Uiso  ? O
   O142       1.0     0.500000     0.735800     0.031390    Uiso  ? O
   O143       1.0     0.592388     0.690942     0.248850    Uiso  ? O
   O144       1.0     0.580525     0.523961     0.379820    Uiso  ? O
   O145       1.0     0.583235     0.559793     0.230352    Uiso  ? O
   O146       1.0     0.583330     0.686880     0.142970    Uiso  ? O
   O147       1.0     0.583330     0.561880     0.062770    Uiso  ? O
   O148       1.0     0.840785     0.637263     0.199292    Uiso  ? O
   O149       1.0     0.832316     0.518161     0.285249    Uiso  ? O
   O150       1.0     0.833205     0.645823     0.375997    Uiso  ? O
   O151       1.0     0.916670     0.561880     0.000000    Uiso  ? O
   O152       1.0     0.916670     0.686880     0.080200    Uiso  ? O
   O153       1.0     0.914328     0.566341     0.161064    Uiso  ? O
   O154       1.0     0.910002     0.683063     0.249563    Uiso  ? O
   O155       1.0     0.923393     0.574460     0.341009    Uiso  ? O
   O156       1.0     0.083330     0.811880     0.062770    Uiso  ? O
   O157       1.0     0.083330     0.936880     0.142970    Uiso  ? O
   O158       1.0     0.570459     0.680918     0.317826    Uiso  ? O
   O159       1.0     0.438169     0.566442     0.318786    Uiso  ? O
   O160       1.0     0.596805     0.543854     0.325646    Uiso  ? O
   O161       1.0     0.833330     0.637960     0.031390    Uiso  ? O
   O162       1.0     0.741110     0.582260     0.343440    Uiso  ? O
   O163       1.0     0.745364     0.681476     0.247737    Uiso  ? O
   O164       1.0     0.748629     0.557745     0.164321    Uiso  ? O
   O165       1.0     0.750000     0.686880     0.080200    Uiso  ? O
   O166       1.0     0.750000     0.561880     0.000000    Uiso  ? O
   O167       1.0     0.645761     0.636793     0.384378    Uiso  ? O
   O168       1.0     0.669270     0.512357     0.278471    Uiso  ? O
   O169       1.0     0.669063     0.632413     0.199417    Uiso  ? O
   O170       1.0     0.666670     0.512960     0.111590    Uiso  ? O
   O171       1.0     0.666670     0.637960     0.031390    Uiso  ? O
   O172       1.0     0.657948     0.723547     0.370565    Uiso  ? O
   O173       1.0     0.655369     0.609793     0.280646    Uiso  ? O
   O174       1.0     0.668932     0.730025     0.195742    Uiso  ? O
   O175       1.0     0.833330     0.512960     0.111590    Uiso  ? O
   O176       1.0     0.666670     0.610800     0.111590    Uiso  ? O
   O177       1.0     0.762757     0.552177     0.403613    Uiso  ? O
   O178       1.0     0.740708     0.692044     0.313384    Uiso  ? O
   O179       1.0     0.752352     0.554787     0.232878    Uiso  ? O
   O180       1.0     0.750000     0.686880     0.142970    Uiso  ? O
   O181       1.0     0.750000     0.561880     0.062770    Uiso  ? O
   O182       1.0     0.913535     0.573036     0.226624    Uiso  ? O
   O183       1.0     0.913460     0.691105     0.320738    Uiso  ? O
   O184       1.0     0.914763     0.562831     0.405338    Uiso  ? O
   O185       1.0     0.833330     0.735800     0.031390    Uiso  ? O
   O186       1.0     0.833330     0.610800     0.111590    Uiso  ? O
   O187       1.0     0.826283     0.734166     0.197109    Uiso  ? O
   O188       1.0     0.838389     0.614430     0.281938    Uiso  ? O
   O189       1.0     0.813350     0.738407     0.362491    Uiso  ? O
   O190       1.0     0.666670     0.735800     0.031390    Uiso  ? O
   O191       1.0     0.006373     0.649560     0.379950    Uiso  ? O
   O192       1.0     0.414019     0.682988     0.246935    Uiso  ? O
   O193       1.0     0.416670     0.686880     0.080200    Uiso  ? O
   O194       1.0     0.154692     0.512563     0.285473    Uiso  ? O
   O195       1.0     0.171733     0.641307     0.190492    Uiso  ? O
   O196       1.0     0.166670     0.512960     0.111590    Uiso  ? O
   O197       1.0     0.166670     0.637960     0.031390    Uiso  ? O
   O198       1.0     0.162819     0.736001     0.377948    Uiso  ? O
   O199       1.0     0.174272     0.614054     0.277007    Uiso  ? O
   O200       1.0     0.164119     0.735456     0.197292    Uiso  ? O
   O201       1.0     0.166670     0.610800     0.111590    Uiso  ? O
   O202       1.0     0.166670     0.735800     0.031390    Uiso  ? O
   O203       1.0     0.256144     0.580056     0.392683    Uiso  ? O
   O204       1.0     0.263564     0.700326     0.314468    Uiso  ? O
   O205       1.0     0.244346     0.554747     0.232547    Uiso  ? O
   O206       1.0     0.250000     0.686880     0.142970    Uiso  ? O
   O207       1.0     0.170504     0.646300     0.366712    Uiso  ? O
   O208       1.0     0.250000     0.561880     0.062770    Uiso  ? O
   O209       1.0    -0.003082     0.765936     0.274712    Uiso  ? O
   O210       1.0     0.008136     0.891832     0.365360    Uiso  ? O
   O211       1.0     0.083330     0.811880     0.000000    Uiso  ? O
   O212       1.0     0.083330     0.936880     0.080200    Uiso  ? O
   O213       1.0     0.076243     0.811591     0.164455    Uiso  ? O
   O214       1.0     0.092049     0.932346     0.249203    Uiso  ? O
   O215       1.0     0.082415     0.818288     0.338017    Uiso  ? O
   O216       1.0     0.250000     0.811880     0.062770    Uiso  ? O
   O217       1.0     0.250000     0.936880     0.142970    Uiso  ? O
   O218       1.0     0.079520     0.570026     0.335371    Uiso  ? O
   O219       1.0     0.081119     0.686642     0.247816    Uiso  ? O
   O220       1.0     0.085733     0.559061     0.168813    Uiso  ? O
   O221       1.0     0.083330     0.686880     0.080200    Uiso  ? O
   O222       1.0     0.000290     0.885983     0.192339    Uiso  ? O
   O223       1.0     0.425348     0.566050     0.168605    Uiso  ? O
   O224       1.0     0.250000     0.561880     0.000000    Uiso  ? O
   O225       1.0     0.252987     0.565005     0.168846    Uiso  ? O
   O226       1.0     0.416670     0.561880     0.000000    Uiso  ? O
   O227       1.0     0.323005     0.635657     0.357017    Uiso  ? O
   O228       1.0     0.325523     0.508590     0.280764    Uiso  ? O
   O229       1.0     0.337926     0.639993     0.204078    Uiso  ? O
   O230       1.0     0.333330     0.512960     0.111590    Uiso  ? O
   O231       1.0     0.333330     0.637960     0.031390    Uiso  ? O
   O232       1.0     0.331339     0.729765     0.373324    Uiso  ? O
   O233       1.0     0.316369     0.607089     0.277955    Uiso  ? O
   O234       1.0     0.339710     0.735644     0.193728    Uiso  ? O
   O235       1.0     0.333330     0.610800     0.111590    Uiso  ? O
   O236       1.0     0.333330     0.735800     0.031390    Uiso  ? O
   O237       1.0     0.422499     0.533368     0.389474    Uiso  ? O
   O238       1.0     0.424951     0.685816     0.312524    Uiso  ? O
   O239       1.0     0.250000     0.686880     0.080200    Uiso  ? O
   O240       1.0     0.426871     0.567005     0.232655    Uiso  ? O
   O241       1.0     0.416670     0.561880     0.062770    Uiso  ? O
   O242       1.0     0.080071     0.824110     0.228808    Uiso  ? O
   O243       1.0     0.092239     0.934211     0.312459    Uiso  ? O
   O244       1.0     0.073481     0.825043     0.401858    Uiso  ? O
   O245       1.0     0.000000     0.985800     0.031390    Uiso  ? O
   O246       1.0     0.000000     0.860800     0.111590    Uiso  ? O
   O247       1.0    -0.000176     0.980482     0.197818    Uiso  ? O
   O248       1.0    -0.013047     0.867845     0.279904    Uiso  ? O
   O249       1.0    -0.002873     0.982256     0.376951    Uiso  ? O
   O250       1.0     0.000000     0.887960     0.031390    Uiso  ? O
   O251       1.0     0.000000     0.762960     0.111590    Uiso  ? O
   O252       1.0     0.251398     0.552094     0.332438    Uiso  ? O
   O253       1.0     0.239653     0.690583     0.244330    Uiso  ? O
   O254       1.0     0.416670     0.686880     0.142970    Uiso  ? O
   O255       1.0     0.333330     0.360800     0.111590    Uiso  ? O
   O256       1.0     0.333330     0.485800     0.031390    Uiso  ? O
   O257       1.0     0.427093     0.307528     0.388624    Uiso  ? O
   O258       1.0     0.507672     0.142216     0.197176    Uiso  ? O
   O259       1.0     0.500000     0.012960     0.111590    Uiso  ? O
   O260       1.0     0.500000     0.137960     0.031390    Uiso  ? O
   O261       1.0     0.506986     0.231851     0.373346    Uiso  ? O
   O262       1.0     0.499355     0.112708     0.277981    Uiso  ? O
   O263       1.0     0.500262     0.239466     0.199500    Uiso  ? O
   O264       1.0     0.500000     0.110800     0.111590    Uiso  ? O
   O265       1.0     0.500000     0.235800     0.031390    Uiso  ? O
   O266       1.0     0.590724     0.063181     0.400921    Uiso  ? O
   O267       1.0     0.575808     0.195733     0.315547    Uiso  ? O
   O268       1.0     0.581386     0.063084     0.234263    Uiso  ? O
   O269       1.0     0.503293     0.007991     0.283271    Uiso  ? O
   O270       1.0     0.583330     0.186880     0.142970    Uiso  ? O
   O271       1.0     0.830704     0.759825     0.283457    Uiso  ? O
   O272       1.0     0.837562     0.890188     0.373487    Uiso  ? O
   O273       1.0     0.916670     0.811880     0.000000    Uiso  ? O
   O274       1.0     0.916670     0.936880     0.080200    Uiso  ? O
   O275       1.0     0.913687     0.816941     0.163628    Uiso  ? O
   O276       1.0     0.918506     0.939383     0.245871    Uiso  ? O
   O277       1.0     0.908332     0.815109     0.337917    Uiso  ? O
   O278       1.0     0.436298     0.060455     0.334397    Uiso  ? O
   O279       1.0     0.418615     0.189288     0.250108    Uiso  ? O
   O280       1.0     0.424633     0.064920     0.167314    Uiso  ? O
   O281       1.0     0.416670     0.186880     0.080200    Uiso  ? O
   O282       1.0     0.583330     0.061880     0.062770    Uiso  ? O
   O283       1.0     0.416670     0.061880     0.000000    Uiso  ? O
   O284       1.0     0.500400     0.138343     0.370645    Uiso  ? O
   O285       1.0     0.583330     0.186880     0.080200    Uiso  ? O
   O286       1.0     0.666670     0.137960     0.031390    Uiso  ? O
   O287       1.0     0.651681     0.228762     0.371311    Uiso  ? O
   O288       1.0     0.660213     0.119788     0.285686    Uiso  ? O
   O289       1.0     0.666539     0.237714     0.198855    Uiso  ? O
   O290       1.0     0.666670     0.110800     0.111590    Uiso  ? O
   O291       1.0     0.666670     0.235800     0.031390    Uiso  ? O
   O292       1.0     0.747424     0.065723     0.399223    Uiso  ? O
   O293       1.0     0.746022     0.199928     0.310968    Uiso  ? O
   O294       1.0     0.756991     0.069544     0.230497    Uiso  ? O
   O295       1.0     0.750000     0.186880     0.142970    Uiso  ? O
   O296       1.0     0.750000     0.061880     0.062770    Uiso  ? O
   O297       1.0     0.583330     0.061880     0.000000    Uiso  ? O
   O298       1.0     0.929677     0.941120     0.313085    Uiso  ? O
   O299       1.0     0.916670     0.686880     0.142970    Uiso  ? O
   O300       1.0     0.833330     0.860800     0.111590    Uiso  ? O
   O301       1.0     0.828398     0.984463     0.201152    Uiso  ? O
   O302       1.0     0.831645     0.857906     0.283275    Uiso  ? O
   O303       1.0     0.839342     0.982667     0.375763    Uiso  ? O
   O304       1.0     0.833330     0.887960     0.031390    Uiso  ? O
   O305       1.0     0.833330     0.762960     0.111590    Uiso  ? O
   O306       1.0     0.834578     0.890831     0.200911    Uiso  ? O
   O307       1.0     0.579831     0.063597     0.331214    Uiso  ? O
   O308       1.0     0.594965     0.188707     0.245937    Uiso  ? O
   O309       1.0     0.588653     0.063036     0.164875    Uiso  ? O
   O310       1.0     0.914799     0.807605     0.403505    Uiso  ? O
   O311       1.0     0.666670     0.012960     0.111590    Uiso  ? O
   O312       1.0     0.339321     0.139827     0.377210    Uiso  ? O
   O313       1.0     0.341935     0.139362     0.199827    Uiso  ? O
   O314       1.0     0.243184     0.183923     0.310141    Uiso  ? O
   O315       1.0     0.262872     0.064955     0.232414    Uiso  ? O
   O316       1.0     0.250000     0.186880     0.142970    Uiso  ? O
   O317       1.0     0.250000     0.061880     0.062770    Uiso  ? O
   O318       1.0     0.089346     0.058395     0.335773    Uiso  ? O
   O319       1.0     0.078032     0.188730     0.251360    Uiso  ? O
   O320       1.0     0.089075     0.056921     0.165055    Uiso  ? O
   O321       1.0     0.083330     0.186880     0.080200    Uiso  ? O
   O322       1.0     0.083330     0.061880     0.000000    Uiso  ? O
   O323       1.0    -0.000680     0.134480     0.368554    Uiso  ? O
   O324       1.0     0.004775     0.009521     0.283035    Uiso  ? O
   O325       1.0     0.262648     0.058709     0.394506    Uiso  ? O
   O326       1.0     0.006893     0.140658     0.195910    Uiso  ? O
   O327       1.0     0.000000     0.137960     0.031390    Uiso  ? O
   O328       1.0     0.005638     0.224645     0.375455    Uiso  ? O
   O329       1.0     0.002632     0.105442     0.281336    Uiso  ? O
   O330       1.0    -0.000071     0.234981     0.197902    Uiso  ? O
   O331       1.0     0.000000     0.110800     0.111590    Uiso  ? O
   O332       1.0     0.000000     0.235800     0.031390    Uiso  ? O
   O333       1.0     0.089256     0.064668     0.400614    Uiso  ? O
   O334       1.0     0.071472     0.178740     0.316036    Uiso  ? O
   O335       1.0     0.083093     0.055663     0.230111    Uiso  ? O
   O336       1.0     0.083330     0.186880     0.142970    Uiso  ? O
   O337       1.0     0.083330     0.061880     0.062770    Uiso  ? O
   O338       1.0     0.000000     0.012960     0.111590    Uiso  ? O
   O339       1.0     0.327022     0.014675     0.278960    Uiso  ? O
   O340       1.0     0.166670     0.235800     0.031390    Uiso  ? O
   O341       1.0     0.170545     0.232223     0.201414    Uiso  ? O
   O342       1.0     0.333330     0.012960     0.111590    Uiso  ? O
   O343       1.0     0.333330     0.137960     0.031390    Uiso  ? O
   O344       1.0     0.331661     0.228809     0.360870    Uiso  ? O
   O345       1.0     0.339285     0.108090     0.279800    Uiso  ? O
   O346       1.0     0.337735     0.233530     0.202536    Uiso  ? O
   O347       1.0     0.333330     0.110800     0.111590    Uiso  ? O
   O348       1.0     0.333330     0.235800     0.031390    Uiso  ? O
   O349       1.0     0.427451     0.056385     0.397523    Uiso  ? O
   O350       1.0     0.418052     0.193326     0.316059    Uiso  ? O
   O351       1.0     0.427668     0.056961     0.228456    Uiso  ? O
   O352       1.0     0.416670     0.186880     0.142970    Uiso  ? O
   O353       1.0     0.166670     0.110800     0.111590    Uiso  ? O
   O354       1.0     0.416670     0.061880     0.062770    Uiso  ? O
   O355       1.0     0.258204     0.188305     0.248287    Uiso  ? O
   O356       1.0     0.258904     0.059231     0.165563    Uiso  ? O
   O357       1.0     0.250000     0.186880     0.080200    Uiso  ? O
   O358       1.0     0.250000     0.061880     0.000000    Uiso  ? O
   O359       1.0     0.175377     0.140227     0.370185    Uiso  ? O
   O360       1.0     0.171213     0.013332     0.275275    Uiso  ? O
   O361       1.0     0.171621     0.138320     0.198524    Uiso  ? O
   O362       1.0     0.166670     0.012960     0.111590    Uiso  ? O
   O363       1.0     0.166670     0.137960     0.031390    Uiso  ? O
   O364       1.0     0.166252     0.231137     0.359093    Uiso  ? O
   O365       1.0     0.165080     0.110550     0.270914    Uiso  ? O
   O366       1.0     0.251430     0.062988     0.331362    Uiso  ? O
   O367       1.0     0.661319     0.141879     0.197400    Uiso  ? O
   O368       1.0     0.833330     0.985800     0.031390    Uiso  ? O
   O369       1.0     0.683246     0.139048     0.364152    Uiso  ? O
   O370       1.0     0.248621     0.301717     0.395121    Uiso  ? O
   O371       1.0     0.242663     0.428566     0.312113    Uiso  ? O
   O372       1.0     0.249166     0.313107     0.227752    Uiso  ? O
   O373       1.0     0.250000     0.436880     0.142970    Uiso  ? O
   O374       1.0     0.250000     0.311880     0.062770    Uiso  ? O
   O375       1.0     0.493643     0.761229     0.286407    Uiso  ? O
   O376       1.0     0.501188     0.883131     0.374551    Uiso  ? O
   O377       1.0     0.583330     0.811880     0.000000    Uiso  ? O
   O378       1.0     0.583330     0.936880     0.080200    Uiso  ? O
   O379       1.0     0.576610     0.808816     0.169055    Uiso  ? O
   O380       1.0     0.590168     0.932925     0.245131    Uiso  ? O
   O381       1.0     0.570428     0.809220     0.333220    Uiso  ? O
   O382       1.0     0.664966     0.014437     0.280154    Uiso  ? O
   O383       1.0     0.750000     0.936880     0.142970    Uiso  ? O
   O384       1.0     0.746496     0.808256     0.226950    Uiso  ? O
   O385       1.0     0.080309     0.313151     0.330312    Uiso  ? O
   O386       1.0     0.075375     0.437316     0.249520    Uiso  ? O
   O387       1.0     0.091604     0.313425     0.166299    Uiso  ? O
   O388       1.0     0.083330     0.436880     0.080200    Uiso  ? O
   O389       1.0     0.083330     0.311880     0.000000    Uiso  ? O
   O390       1.0    -0.000108     0.388817     0.368444    Uiso  ? O
   O391       1.0     0.001622     0.258527     0.284103    Uiso  ? O
   O392       1.0     0.005412     0.388933     0.195137    Uiso  ? O
   O393       1.0     0.000000     0.262960     0.111590    Uiso  ? O
   O394       1.0     0.000000     0.387960     0.031390    Uiso  ? O
   O395       1.0     0.166670     0.485800     0.031390    Uiso  ? O
   O396       1.0     0.003182     0.482342     0.368479    Uiso  ? O
   O397       1.0     0.166670     0.360800     0.111590    Uiso  ? O
   O398       1.0     0.166892     0.358126     0.278220    Uiso  ? O
   O399       1.0     0.415064     0.440754     0.305743    Uiso  ? O
   O400       1.0     0.421185     0.328113     0.229434    Uiso  ? O
   O401       1.0     0.416670     0.436880     0.142970    Uiso  ? O
   O402       1.0     0.416670     0.311880     0.062770    Uiso  ? O
   O403       1.0     0.592653     0.933386     0.315767    Uiso  ? O
   O404       1.0     0.575019     0.809155     0.398040    Uiso  ? O
   O405       1.0     0.500000     0.985800     0.031390    Uiso  ? O
   O406       1.0     0.500000     0.860800     0.111590    Uiso  ? O
   O407       1.0     0.507234     0.988791     0.194872    Uiso  ? O
   O408       1.0     0.486890     0.859008     0.279823    Uiso  ? O
   O409       1.0     0.510254     0.980422     0.371647    Uiso  ? O
   O410       1.0     0.500000     0.887960     0.031390    Uiso  ? O
   O411       1.0     0.500000     0.762960     0.111590    Uiso  ? O
   O412       1.0     0.500533     0.893229     0.197910    Uiso  ? O
   O413       1.0     0.253378     0.307579     0.331765    Uiso  ? O
   O414       1.0     0.244844     0.441364     0.244004    Uiso  ? O
   O415       1.0     0.244780     0.299074     0.165235    Uiso  ? O
   O416       1.0     0.250000     0.436880     0.080200    Uiso  ? O
   O417       1.0     0.250000     0.311880     0.000000    Uiso  ? O
   O418       1.0     0.163623     0.385623     0.365955    Uiso  ? O
   O419       1.0     0.175915     0.255943     0.283220    Uiso  ? O
   O420       1.0     0.167818     0.390889     0.202715    Uiso  ? O
   O421       1.0     0.166670     0.262960     0.111590    Uiso  ? O
   O422       1.0     0.166670     0.387960     0.031390    Uiso  ? O
   O423       1.0     0.164726     0.481270     0.373790    Uiso  ? O
   O424       1.0     0.170679     0.486950     0.193534    Uiso  ? O
   O425       1.0    -0.001196     0.362150     0.281491    Uiso  ? O
   O426       1.0     0.750000     0.811880     0.062770    Uiso  ? O
   O427       1.0     0.000000     0.360800     0.111590    Uiso  ? O
   O428       1.0     0.836136     0.143818     0.367661    Uiso  ? O
   O429       1.0     0.837343     0.010147     0.283801    Uiso  ? O
   O430       1.0     0.834761     0.134546     0.189182    Uiso  ? O
   O431       1.0     0.833330     0.012960     0.111590    Uiso  ? O
   O432       1.0     0.833330     0.137960     0.031390    Uiso  ? O
   O433       1.0     0.841620     0.235251     0.370911    Uiso  ? O
   O434       1.0     0.832082     0.110539     0.283398    Uiso  ? O
   O435       1.0    -0.007736     0.482736     0.200866    Uiso  ? O
   O436       1.0     0.833330     0.110800     0.111590    Uiso  ? O
   O437       1.0     0.833330     0.235800     0.031390    Uiso  ? O
   O438       1.0     0.916563     0.068508     0.398344    Uiso  ? O
   O439       1.0     0.916924     0.187728     0.314812    Uiso  ? O
   O440       1.0     0.917223     0.065305     0.227087    Uiso  ? O
   O441       1.0     0.916670     0.186880     0.142970    Uiso  ? O
   O442       1.0     0.916670     0.061880     0.000000    Uiso  ? O
   O443       1.0     0.916670     0.061880     0.062770    Uiso  ? O
   O444       1.0     0.674936     0.881777     0.370913    Uiso  ? O
   O445       1.0     0.750000     0.811880     0.000000    Uiso  ? O
   O446       1.0     0.750000     0.936880     0.080200    Uiso  ? O
   O447       1.0     0.741003     0.817158     0.163084    Uiso  ? O
   O448       1.0     0.752747     0.938386     0.246500    Uiso  ? O
   O449       1.0     0.743003     0.818325     0.336080    Uiso  ? O
   O450       1.0     0.916670     0.811880     0.062770    Uiso  ? O
   O451       1.0     0.916670     0.936880     0.142970    Uiso  ? O
   O452       1.0     0.910868     0.796010     0.225569    Uiso  ? O
   O453       1.0     0.758736     0.049612     0.328082    Uiso  ? O
   O454       1.0     0.754122     0.177832     0.246334    Uiso  ? O
   O455       1.0     0.754630     0.054987     0.163484    Uiso  ? O
   O456       1.0     0.750000     0.186880     0.080200    Uiso  ? O
   O457       1.0     0.750000     0.061880     0.000000    Uiso  ? O
   O458       1.0     0.664098     0.765776     0.282496    Uiso  ? O
   O459       1.0     0.916670     0.186880     0.080200    Uiso  ? O
   O460       1.0     0.830215     0.232114     0.198550    Uiso  ? O
   O461       1.0     0.913321     0.184262     0.249877    Uiso  ? O
   O462       1.0     0.000000     0.485800     0.031390    Uiso  ? O
   O463       1.0     0.083619     0.314144     0.397341    Uiso  ? O
   O464       1.0     0.083911     0.436304     0.310974    Uiso  ? O
   O465       1.0     0.081099     0.305150     0.232111    Uiso  ? O
   O466       1.0     0.083330     0.436880     0.142970    Uiso  ? O
   O467       1.0     0.083330     0.311880     0.062770    Uiso  ? O
   O468       1.0     0.749613     0.937448     0.314850    Uiso  ? O
   O469       1.0     0.739331     0.810509     0.399171    Uiso  ? O
   O470       1.0     0.666670     0.985800     0.031390    Uiso  ? O
   O471       1.0     0.666670     0.860800     0.111590    Uiso  ? O
   O472       1.0     0.677081     0.983943     0.196365    Uiso  ? O
   O473       1.0     0.920531     0.057504     0.166312    Uiso  ? O
   O474       1.0     0.916670     0.561880     0.062770    Uiso  ? O
   O475       1.0     0.658392     0.859273     0.285946    Uiso  ? O
   O476       1.0     0.666670     0.762960     0.111590    Uiso  ? O
   O477       1.0     0.665635     0.885202     0.199100    Uiso  ? O
   O478       1.0     0.919913     0.050983     0.334179    Uiso  ? O
   O479       1.0     0.666670     0.887960     0.031390    Uiso  ? O
   O480       1.0     0.670632     0.978981     0.373638    Uiso  ? O
   Pt1        1.0     0.587758     0.492657     0.557050    Uiso  ? Pt
   Pt2        1.0     0.480317     0.549464     0.537682    Uiso  ? Pt
   Pt3        1.0     0.494032     0.317383     0.520958    Uiso  ? Pt
   Pt4        1.0     0.606542     0.384905     0.410359    Uiso  ? Pt
   Pt5        1.0     0.572816     0.384742     0.548878    Uiso  ? Pt
   Pt6        1.0     0.714792     0.535200     0.454183    Uiso  ? Pt
   Pt7        1.0     0.597208     0.472572     0.487986    Uiso  ? Pt
   Pt8        1.0     0.599679     0.375799     0.481492    Uiso  ? Pt
   Pt9        1.0     0.496446     0.431754     0.446335    Uiso  ? Pt
   Pt10       1.0     0.700439     0.310367     0.441601    Uiso  ? Pt
   Pt11       1.0     0.600482     0.267858     0.488636    Uiso  ? Pt
   Pt12       1.0     0.494368     0.328003     0.451574    Uiso  ? Pt
   Pt13       1.0     0.366496     0.273472     0.499702    Uiso  ? Pt
   Pt14       1.0     0.365424     0.375344     0.483615    Uiso  ? Pt
   Pt15       1.0     0.381298     0.367495     0.549332    Uiso  ? Pt
   Pt16       1.0     0.604227     0.484697     0.428026    Uiso  ? Pt
   Pt17       1.0     0.623855     0.614728     0.429042    Uiso  ? Pt
   Pt18       1.0     0.484650     0.546561     0.430227    Uiso  ? Pt
   Pt19       1.0     0.567217     0.574749     0.486549    Uiso  ? Pt
   Pt20       1.0     0.607423     0.235401     0.426066    Uiso  ? Pt
   Pt21       1.0     0.391424     0.261015     0.429798    Uiso  ? Pt
   Pt22       1.0     0.345602     0.475915     0.552820    Uiso  ? Pt
   Pt23       1.0     0.418899     0.576479     0.486375    Uiso  ? Pt
   Pt24       1.0     0.348696     0.598010     0.432694    Uiso  ? Pt
   Pt25       1.0     0.231524     0.429796     0.513017    Uiso  ? Pt
   Pt26       1.0     0.467076     0.453598     0.522093    Uiso  ? Pt
   Pt27       1.0     0.350158     0.467862     0.488130    Uiso  ? Pt
   Pt28       1.0     0.397080     0.378444     0.413904    Uiso  ? Pt
   Pt29       1.0     0.273869     0.321513     0.440376    Uiso  ? Pt
   Pt30       1.0     0.236757     0.419789     0.443061    Uiso  ? Pt
   Pt31       1.0     0.245498     0.521685     0.455940    Uiso  ? Pt
   Pt32       1.0     0.357807     0.474389     0.424359    Uiso  ? Pt
   Pt33       1.0     0.710544     0.445563     0.533737    Uiso  ? Pt
   Pt34       1.0     0.732483     0.417084     0.462849    Uiso  ? Pt
   Ti1        1.0     0.827708     0.687424     0.280127    Uiso  ? Ti
   Ti2        1.0     0.750000     0.811880     0.111590    Uiso  ? Ti
   Ti3        1.0     0.746311     0.930664     0.196132    Uiso  ? Ti
   Ti4        1.0     0.744514     0.817774     0.292244    Uiso  ? Ti
   Ti5        1.0     0.759454     0.940367     0.359311    Uiso  ? Ti
   Ti6        1.0     0.170097     0.304759     0.198623    Uiso  ? Ti
   Ti7        1.0     0.166670     0.436880     0.111590    Uiso  ? Ti
   Ti8        1.0     0.166670     0.311880     0.031390    Uiso  ? Ti
   Ti9        1.0     0.082738     0.442276     0.358337    Uiso  ? Ti
   Ti10       1.0     0.092796     0.312538     0.279733    Uiso  ? Ti
   Ti11       1.0     0.082233     0.442024     0.194346    Uiso  ? Ti
   Ti12       1.0     0.083330     0.311880     0.111590    Uiso  ? Ti
   Ti13       1.0     0.083330     0.436880     0.031390    Uiso  ? Ti
   Ti14       1.0     0.009475     0.314920     0.366478    Uiso  ? Ti
   Ti15       1.0    -0.009511     0.438845     0.281109    Uiso  ? Ti
   Ti16       1.0     0.002424     0.312931     0.194665    Uiso  ? Ti
   Ti17       1.0     0.000000     0.436880     0.111590    Uiso  ? Ti
   Ti18       1.0     0.000000     0.311880     0.031390    Uiso  ? Ti
   Ti19       1.0     0.932017     0.186059     0.360833    Uiso  ? Ti
   Ti20       1.0     0.916958     0.064279     0.291425    Uiso  ? Ti
   Ti21       1.0     0.911544     0.184322     0.191895    Uiso  ? Ti
   Ti22       1.0     0.916670     0.061880     0.111590    Uiso  ? Ti
   Ti23       1.0     0.916670     0.186880     0.031390    Uiso  ? Ti
   Ti24       1.0     0.827581     0.069859     0.368930    Uiso  ? Ti
   Ti25       1.0     0.832051     0.189381     0.279013    Uiso  ? Ti
   Ti26       1.0     0.833330     0.811880     0.031390    Uiso  ? Ti
   Ti27       1.0     0.750000     0.936880     0.031390    Uiso  ? Ti
   Ti28       1.0     0.833330     0.936880     0.111590    Uiso  ? Ti
   Ti29       1.0     0.659021     0.813207     0.372171    Uiso  ? Ti
   Ti30       1.0     0.662917     0.811807     0.200049    Uiso  ? Ti
   Ti31       1.0     0.583330     0.811880     0.111590    Uiso  ? Ti
   Ti32       1.0     0.580524     0.934466     0.190506    Uiso  ? Ti
   Ti33       1.0     0.579559     0.806103     0.284955    Uiso  ? Ti
   Ti34       1.0     0.585041     0.930948     0.364192    Uiso  ? Ti
   Ti35       1.0     0.502812     0.316104     0.197404    Uiso  ? Ti
   Ti36       1.0     0.500000     0.436880     0.111590    Uiso  ? Ti
   Ti37       1.0     0.500000     0.311880     0.031390    Uiso  ? Ti
   Ti38       1.0     0.418436     0.439354     0.352325    Uiso  ? Ti
   Ti39       1.0     0.426802     0.315247     0.276890    Uiso  ? Ti
   Ti40       1.0     0.412349     0.432579     0.196910    Uiso  ? Ti
   Ti41       1.0     0.416670     0.311880     0.111590    Uiso  ? Ti
   Ti42       1.0     0.416670     0.436880     0.031390    Uiso  ? Ti
   Ti43       1.0     0.665819     0.931574     0.280235    Uiso  ? Ti
   Ti44       1.0     0.328230     0.305714     0.366490    Uiso  ? Ti
   Ti45       1.0     0.334858     0.304653     0.198109    Uiso  ? Ti
   Ti46       1.0     0.333330     0.436880     0.111590    Uiso  ? Ti
   Ti47       1.0     0.333330     0.311880     0.031390    Uiso  ? Ti
   Ti48       1.0     0.240833     0.433806     0.356894    Uiso  ? Ti
   Ti49       1.0     0.253356     0.306465     0.282377    Uiso  ? Ti
   Ti50       1.0     0.246493     0.435610     0.192862    Uiso  ? Ti
   Ti51       1.0     0.250000     0.311880     0.111590    Uiso  ? Ti
   Ti52       1.0     0.250000     0.436880     0.031390    Uiso  ? Ti
   Ti53       1.0     0.164697     0.308857     0.364213    Uiso  ? Ti
   Ti54       1.0     0.163069     0.437489     0.276986    Uiso  ? Ti
   Ti55       1.0     0.666670     0.811880     0.031390    Uiso  ? Ti
   Ti56       1.0     0.666670     0.936880     0.111590    Uiso  ? Ti
   Ti57       1.0     0.329098     0.432689     0.273842    Uiso  ? Ti
   Ti58       1.0     0.834169     0.817488     0.195788    Uiso  ? Ti
   Ti59       1.0     0.832724     0.939148     0.280835    Uiso  ? Ti
   Ti60       1.0     0.829644     0.813788     0.377320    Uiso  ? Ti
   Ti61       1.0     0.416670     0.061880     0.111590    Uiso  ? Ti
   Ti62       1.0     0.416670     0.186880     0.031390    Uiso  ? Ti
   Ti63       1.0     0.351720     0.060962     0.368050    Uiso  ? Ti
   Ti64       1.0     0.338130     0.184092     0.278455    Uiso  ? Ti
   Ti65       1.0     0.334724     0.061246     0.197980    Uiso  ? Ti
   Ti66       1.0     0.333330     0.186880     0.111590    Uiso  ? Ti
   Ti67       1.0     0.333330     0.061880     0.031390    Uiso  ? Ti
   Ti68       1.0     0.248180     0.185017     0.359997    Uiso  ? Ti
   Ti69       1.0     0.248993     0.069400     0.287401    Uiso  ? Ti
   Ti70       1.0     0.255222     0.178129     0.193946    Uiso  ? Ti
   Ti71       1.0     0.250000     0.061880     0.111590    Uiso  ? Ti
   Ti72       1.0     0.250000     0.186880     0.031390    Uiso  ? Ti
   Ti73       1.0     0.423497     0.189055     0.190757    Uiso  ? Ti
   Ti74       1.0     0.176027     0.058933     0.367365    Uiso  ? Ti
   Ti75       1.0     0.156845     0.058726     0.200646    Uiso  ? Ti
   Ti76       1.0     0.166670     0.186880     0.111590    Uiso  ? Ti
   Ti77       1.0     0.166670     0.061880     0.031390    Uiso  ? Ti
   Ti78       1.0     0.086269     0.180292     0.359563    Uiso  ? Ti
   Ti79       1.0     0.078657     0.056400     0.287931    Uiso  ? Ti
   Ti80       1.0     0.079870     0.191629     0.190716    Uiso  ? Ti
   Ti81       1.0     0.083330     0.061880     0.111590    Uiso  ? Ti
   Ti82       1.0     0.083330     0.186880     0.031390    Uiso  ? Ti
   Ti83       1.0     0.007804     0.056914     0.375087    Uiso  ? Ti
   Ti84       1.0    -0.008172     0.181827     0.278845    Uiso  ? Ti
   Ti85       1.0    -0.002806     0.057602     0.198068    Uiso  ? Ti
   Ti86       1.0     0.000000     0.186880     0.111590    Uiso  ? Ti
   Ti87       1.0     0.168833     0.181165     0.274118    Uiso  ? Ti
   Ti88       1.0     0.423897     0.057708     0.286767    Uiso  ? Ti
   Ti89       1.0     0.421386     0.187840     0.358310    Uiso  ? Ti
   Ti90       1.0     0.500000     0.061880     0.031390    Uiso  ? Ti
   Ti91       1.0     0.916670     0.936880     0.031390    Uiso  ? Ti
   Ti92       1.0     0.916670     0.811880     0.111590    Uiso  ? Ti
   Ti93       1.0     0.917283     0.938095     0.194799    Uiso  ? Ti
   Ti94       1.0     0.903836     0.809875     0.294154    Uiso  ? Ti
   Ti95       1.0     0.926405     0.937496     0.356988    Uiso  ? Ti
   Ti96       1.0     0.833026     0.054416     0.200003    Uiso  ? Ti
   Ti97       1.0     0.833330     0.186880     0.111590    Uiso  ? Ti
   Ti98       1.0     0.833330     0.061880     0.031390    Uiso  ? Ti
   Ti99       1.0     0.756989     0.188949     0.355137    Uiso  ? Ti
   Ti100      1.0     0.746101     0.066744     0.285035    Uiso  ? Ti
   Ti101      1.0     0.748886     0.177332     0.197283    Uiso  ? Ti
   Ti102      1.0     0.750000     0.061880     0.111590    Uiso  ? Ti
   Ti103      1.0     0.750000     0.186880     0.031390    Uiso  ? Ti
   Ti104      1.0     0.672684     0.062404     0.367656    Uiso  ? Ti
   Ti105      1.0     0.669212     0.192169     0.275764    Uiso  ? Ti
   Ti106      1.0     0.673167     0.056555     0.198697    Uiso  ? Ti
   Ti107      1.0     0.666670     0.186880     0.111590    Uiso  ? Ti
   Ti108      1.0     0.666670     0.061880     0.031390    Uiso  ? Ti
   Ti109      1.0     0.583867     0.175161     0.357670    Uiso  ? Ti
   Ti110      1.0     0.583151     0.060595     0.281311    Uiso  ? Ti
   Ti111      1.0     0.585856     0.194302     0.192841    Uiso  ? Ti
   Ti112      1.0     0.583330     0.061880     0.111590    Uiso  ? Ti
   Ti113      1.0     0.583330     0.186880     0.031390    Uiso  ? Ti
   Ti114      1.0     0.513948     0.061403     0.370015    Uiso  ? Ti
   Ti115      1.0     0.508620     0.183135     0.275586    Uiso  ? Ti
   Ti116      1.0     0.505756     0.068109     0.199717    Uiso  ? Ti
   Ti117      1.0     0.500000     0.186880     0.111590    Uiso  ? Ti
   Ti118      1.0     0.583330     0.936880     0.031390    Uiso  ? Ti
   Ti119      1.0     0.496925     0.810804     0.368464    Uiso  ? Ti
   Ti120      1.0     0.510963     0.931366     0.278241    Uiso  ? Ti
   Ti121      1.0     0.488755     0.811961     0.199613    Uiso  ? Ti
   Ti122      1.0     0.001846     0.813924     0.374396    Uiso  ? Ti
   Ti123      1.0     0.083330     0.936880     0.031390    Uiso  ? Ti
   Ti124      1.0     0.083330     0.811880     0.111590    Uiso  ? Ti
   Ti125      1.0     0.091879     0.933548     0.189012    Uiso  ? Ti
   Ti126      1.0     0.075170     0.826873     0.292422    Uiso  ? Ti
   Ti127      1.0     0.085944     0.933422     0.356900    Uiso  ? Ti
   Ti128      1.0     0.500000     0.686880     0.111590    Uiso  ? Ti
   Ti129      1.0     0.500000     0.561880     0.031390    Uiso  ? Ti
   Ti130      1.0     0.410171     0.680118     0.355653    Uiso  ? Ti
   Ti131      1.0     0.416683     0.553765     0.276911    Uiso  ? Ti
   Ti132      1.0     0.417938     0.687532     0.192503    Uiso  ? Ti
   Ti133      1.0     0.416670     0.561880     0.111590    Uiso  ? Ti
   Ti134      1.0     0.001420     0.935911     0.274564    Uiso  ? Ti
   Ti135      1.0     0.416670     0.686880     0.031390    Uiso  ? Ti
   Ti136      1.0     0.326076     0.683208     0.271117    Uiso  ? Ti
   Ti137      1.0     0.342236     0.560412     0.201320    Uiso  ? Ti
   Ti138      1.0     0.333330     0.686880     0.111590    Uiso  ? Ti
   Ti139      1.0     0.333330     0.561880     0.031390    Uiso  ? Ti
   Ti140      1.0     0.247881     0.693625     0.358982    Uiso  ? Ti
   Ti141      1.0     0.242197     0.557170     0.283641    Uiso  ? Ti
   Ti142      1.0     0.252846     0.689509     0.195567    Uiso  ? Ti
   Ti143      1.0     0.250000     0.561880     0.111590    Uiso  ? Ti
   Ti144      1.0     0.250000     0.686880     0.031390    Uiso  ? Ti
   Ti145      1.0     0.166245     0.567928     0.365329    Uiso  ? Ti
   Ti146      1.0     0.166394     0.686241     0.281210    Uiso  ? Ti
   Ti147      1.0     0.172528     0.563317     0.200866    Uiso  ? Ti
   Ti148      1.0     0.333393     0.563716     0.362082    Uiso  ? Ti
   Ti149      1.0     0.166670     0.811880     0.031390    Uiso  ? Ti
   Ti150      1.0     0.003038     0.814305     0.198919    Uiso  ? Ti
   Ti151      1.0     0.000000     0.811880     0.031390    Uiso  ? Ti
   Ti152      1.0     0.831752     0.564116     0.368447    Uiso  ? Ti
   Ti153      1.0     0.916670     0.686880     0.031390    Uiso  ? Ti
   Ti154      1.0     0.916670     0.561880     0.111590    Uiso  ? Ti
   Ti155      1.0     0.913465     0.690354     0.200174    Uiso  ? Ti
   Ti156      1.0     0.906749     0.568022     0.293113    Uiso  ? Ti
   Ti157      1.0     0.910887     0.690698     0.363379    Uiso  ? Ti
   Ti158      1.0     0.833330     0.686880     0.111590    Uiso  ? Ti
   Ti159      1.0     0.833330     0.561880     0.031390    Uiso  ? Ti
   Ti160      1.0     0.746214     0.683821     0.360519    Uiso  ? Ti
   Ti161      1.0     0.745293     0.564648     0.276952    Uiso  ? Ti
   Ti162      1.0     0.755132     0.680932     0.190790    Uiso  ? Ti
   Ti163      1.0     0.750000     0.561880     0.111590    Uiso  ? Ti
   Ti164      1.0     0.000000     0.936880     0.111590    Uiso  ? Ti
   Ti165      1.0     0.750000     0.686880     0.031390    Uiso  ? Ti
   Ti166      1.0     0.671142     0.690710     0.278357    Uiso  ? Ti
   Ti167      1.0     0.675968     0.557856     0.197215    Uiso  ? Ti
   Ti168      1.0     0.666670     0.686880     0.111590    Uiso  ? Ti
   Ti169      1.0     0.666670     0.561880     0.031390    Uiso  ? Ti
   Ti170      1.0     0.570742     0.687049     0.360708    Uiso  ? Ti
   Ti171      1.0     0.579397     0.557857     0.280103    Uiso  ? Ti
   Ti172      1.0     0.585895     0.684546     0.202138    Uiso  ? Ti
   Ti173      1.0     0.583330     0.561880     0.111590    Uiso  ? Ti
   Ti174      1.0     0.583330     0.686880     0.031390    Uiso  ? Ti
   Ti175      1.0     0.510225     0.563381     0.357669    Uiso  ? Ti
   Ti176      1.0     0.496358     0.681213     0.275824    Uiso  ? Ti
   Ti177      1.0     0.506373     0.557546     0.199555    Uiso  ? Ti
   Ti178      1.0     0.677635     0.560725     0.378078    Uiso  ? Ti
   Ti179      1.0     0.166670     0.936880     0.111590    Uiso  ? Ti
   Ti180      1.0     0.163328     0.811692     0.201999    Uiso  ? Ti
   Ti181      1.0     0.178954     0.940890     0.274088    Uiso  ? Ti
   Ti182      1.0     0.416670     0.811880     0.111590    Uiso  ? Ti
   Ti183      1.0     0.420164     0.943674     0.200990    Uiso  ? Ti
   Ti184      1.0     0.408383     0.813332     0.287441    Uiso  ? Ti
   Ti185      1.0     0.425368     0.946841     0.361328    Uiso  ? Ti
   Ti186      1.0     0.834184     0.304610     0.204258    Uiso  ? Ti
   Ti187      1.0     0.833330     0.436880     0.111590    Uiso  ? Ti
   Ti188      1.0     0.833330     0.311880     0.031390    Uiso  ? Ti
   Ti189      1.0     0.746444     0.432548     0.354462    Uiso  ? Ti
   Ti190      1.0     0.760723     0.313846     0.285792    Uiso  ? Ti
   Ti191      1.0     0.755657     0.435441     0.194266    Uiso  ? Ti
   Ti192      1.0     0.750000     0.311880     0.111590    Uiso  ? Ti
   Ti193      1.0     0.750000     0.436880     0.031390    Uiso  ? Ti
   Ti194      1.0     0.416670     0.936880     0.031390    Uiso  ? Ti
   Ti195      1.0     0.671994     0.300499     0.361136    Uiso  ? Ti
   Ti196      1.0     0.675525     0.313190     0.192628    Uiso  ? Ti
   Ti197      1.0     0.666670     0.436880     0.111590    Uiso  ? Ti
   Ti198      1.0     0.666670     0.311880     0.031390    Uiso  ? Ti
   Ti199      1.0     0.592394     0.448837     0.366221    Uiso  ? Ti
   Ti200      1.0     0.588640     0.308707     0.272782    Uiso  ? Ti
   Ti201      1.0     0.581965     0.435434     0.195845    Uiso  ? Ti
   Ti202      1.0     0.583330     0.311880     0.111590    Uiso  ? Ti
   Ti203      1.0     0.583330     0.436880     0.031390    Uiso  ? Ti
   Ti204      1.0     0.504861     0.311965     0.356455    Uiso  ? Ti
   Ti205      1.0     0.499974     0.438726     0.280013    Uiso  ? Ti
   Ti206      1.0     0.500000     0.811880     0.031390    Uiso  ? Ti
   Ti207      1.0     0.500000     0.936880     0.111590    Uiso  ? Ti
   Ti208      1.0     0.654896     0.439359     0.268834    Uiso  ? Ti
   Ti209      1.0     0.333608     0.817802     0.373430    Uiso  ? Ti
   Ti210      1.0     0.342341     0.938347     0.279887    Uiso  ? Ti
   Ti211      1.0     0.331113     0.814106     0.195106    Uiso  ? Ti
   Ti212      1.0     0.174026     0.815345     0.370766    Uiso  ? Ti
   Ti213      1.0     0.250000     0.936880     0.031390    Uiso  ? Ti
   Ti214      1.0     0.250000     0.811880     0.111590    Uiso  ? Ti
   Ti215      1.0     0.255595     0.933467     0.193750    Uiso  ? Ti
   Ti216      1.0     0.243541     0.807670     0.286414    Uiso  ? Ti
   Ti217      1.0     0.253443     0.938486     0.356673    Uiso  ? Ti
   Ti218      1.0     0.166670     0.686880     0.111590    Uiso  ? Ti
   Ti219      1.0     0.166670     0.561880     0.031390    Uiso  ? Ti
   Ti220      1.0     0.073996     0.700184     0.362850    Uiso  ? Ti
   Ti221      1.0     0.074314     0.567436     0.289499    Uiso  ? Ti
   Ti222      1.0     0.079604     0.681590     0.194265    Uiso  ? Ti
   Ti223      1.0     0.083330     0.561880     0.111590    Uiso  ? Ti
   Ti224      1.0     0.083330     0.686880     0.031390    Uiso  ? Ti
   Ti225      1.0    -0.003980     0.566432     0.377789    Uiso  ? Ti
   Ti226      1.0     0.005777     0.691665     0.278436    Uiso  ? Ti
   Ti227      1.0     0.011253     0.564508     0.202287    Uiso  ? Ti
   Ti228      1.0     0.000000     0.686880     0.111590    Uiso  ? Ti
   Ti229      1.0     0.000000     0.561880     0.031390    Uiso  ? Ti
   Ti230      1.0     0.919504     0.440640     0.359774    Uiso  ? Ti
   Ti231      1.0     0.932685     0.312094     0.291683    Uiso  ? Ti
   Ti232      1.0     0.916590     0.429069     0.193131    Uiso  ? Ti
   Ti233      1.0     0.916670     0.311880     0.111590    Uiso  ? Ti
   Ti234      1.0     0.916670     0.436880     0.031390    Uiso  ? Ti
   Ti235      1.0     0.845381     0.314068     0.374838    Uiso  ? Ti
   Ti236      1.0     0.828913     0.436701     0.277949    Uiso  ? Ti
   Ti237      1.0     0.333330     0.811880     0.031390    Uiso  ? Ti
   Ti238      1.0     0.333330     0.936880     0.111590    Uiso  ? Ti
   Ti239      1.0     0.845810     0.554238     0.192068    Uiso  ? Ti
   Ti240      1.0     0.000000     0.061880     0.031390    Uiso  ? Ti
