data_TiO2\(4)\(1\1\0)\(4)
_audit_creation_date              2024-02-06
_audit_creation_method            'Materials Studio'
_symmetry_space_group_name_H-M    'P1'
_symmetry_Int_Tables_number       1
_symmetry_cell_setting            triclinic
loop_
_symmetry_equiv_pos_as_xyz
  x,y,z
_cell_length_a                    17.7553
_cell_length_b                    26.0206
_cell_length_c                    40.5561
_cell_angle_alpha                 90.0000
_cell_angle_beta                  90.0000
_cell_angle_gamma                 90.0000
loop_
_atom_site_label
_atom_site_type_symbol
_atom_site_fract_x
_atom_site_fract_y
_atom_site_fract_z
_atom_site_U_iso_or_equiv
_atom_site_adp_type
_atom_site_occupancy
Ti1    Ti    0.00000   0.06188   0.03139   0.00000  Uiso   1.00
Ti2    Ti    0.00000   0.18688   0.11159   0.00000  Uiso   1.00
Ti3    Ti    0.00000   0.06188   0.19179   0.00000  Uiso   1.00
Ti4    Ti    0.00000   0.18688   0.27198   0.00000  Uiso   1.00
Ti5    Ti    0.00000   0.06188   0.35218   0.00000  Uiso   1.00
Ti6    Ti    0.08333   0.18688   0.03139   0.00000  Uiso   1.00
Ti7    Ti    0.08333   0.06188   0.11159   0.00000  Uiso   1.00
Ti8    Ti    0.08333   0.18688   0.19179   0.00000  Uiso   1.00
Ti9    Ti    0.08333   0.06188   0.27198   0.00000  Uiso   1.00
Ti10   Ti    0.08333   0.18688   0.35218   0.00000  Uiso   1.00
O11    O     0.08333   0.06188   0.06277   0.00000  Uiso   1.00
O12    O     0.08333   0.18688   0.14297   0.00000  Uiso   1.00
O13    O     0.08333   0.06188   0.22317   0.00000  Uiso   1.00
O14    O     0.08333   0.18688   0.30337   0.00000  Uiso   1.00
O15    O     0.08333   0.06188   0.38357   0.00000  Uiso   1.00
O16    O     0.00000   0.23580   0.03139   0.00000  Uiso   1.00
O17    O     0.00000   0.11080   0.11159   0.00000  Uiso   1.00
O18    O     0.00000   0.23580   0.19179   0.00000  Uiso   1.00
O19    O     0.00000   0.11080   0.27198   0.00000  Uiso   1.00
O20    O     0.00000   0.23580   0.35218   0.00000  Uiso   1.00
O21    O     0.00000   0.13796   0.03139   0.00000  Uiso   1.00
O22    O     0.00000   0.01296   0.11159   0.00000  Uiso   1.00
O23    O     0.00000   0.13796   0.19179   0.00000  Uiso   1.00
O24    O     0.00000   0.01296   0.27198   0.00000  Uiso   1.00
O25    O     0.00000   0.13796   0.35218   0.00000  Uiso   1.00
O26    O     0.08333   0.06188   0.00000   0.00000  Uiso   1.00
O27    O     0.08333   0.18688   0.08020   0.00000  Uiso   1.00
O28    O     0.08333   0.06188   0.16040   0.00000  Uiso   1.00
O29    O     0.08333   0.18688   0.24060   0.00000  Uiso   1.00
O30    O     0.08333   0.06188   0.32080   0.00000  Uiso   1.00
Ti31   Ti    0.16667   0.06188   0.03139   0.00000  Uiso   1.00
Ti32   Ti    0.16667   0.18688   0.11159   0.00000  Uiso   1.00
Ti33   Ti    0.16667   0.06188   0.19179   0.00000  Uiso   1.00
Ti34   Ti    0.16667   0.18688   0.27198   0.00000  Uiso   1.00
Ti35   Ti    0.16667   0.06188   0.35218   0.00000  Uiso   1.00
Ti36   Ti    0.25000   0.18688   0.03139   0.00000  Uiso   1.00
Ti37   Ti    0.25000   0.06188   0.11159   0.00000  Uiso   1.00
Ti38   Ti    0.25000   0.18688   0.19179   0.00000  Uiso   1.00
Ti39   Ti    0.25000   0.06188   0.27198   0.00000  Uiso   1.00
Ti40   Ti    0.25000   0.18688   0.35218   0.00000  Uiso   1.00
O41    O     0.25000   0.06188   0.06277   0.00000  Uiso   1.00
O42    O     0.25000   0.18688   0.14297   0.00000  Uiso   1.00
O43    O     0.25000   0.06188   0.22317   0.00000  Uiso   1.00
O44    O     0.25000   0.18688   0.30337   0.00000  Uiso   1.00
O45    O     0.25000   0.06188   0.38357   0.00000  Uiso   1.00
O46    O     0.16667   0.23580   0.03139   0.00000  Uiso   1.00
O47    O     0.16667   0.11080   0.11159   0.00000  Uiso   1.00
O48    O     0.16667   0.23580   0.19179   0.00000  Uiso   1.00
O49    O     0.16667   0.11080   0.27198   0.00000  Uiso   1.00
O50    O     0.16667   0.23580   0.35218   0.00000  Uiso   1.00
O51    O     0.16667   0.13796   0.03139   0.00000  Uiso   1.00
O52    O     0.16667   0.01296   0.11159   0.00000  Uiso   1.00
O53    O     0.16667   0.13796   0.19179   0.00000  Uiso   1.00
O54    O     0.16667   0.01296   0.27198   0.00000  Uiso   1.00
O55    O     0.16667   0.13796   0.35218   0.00000  Uiso   1.00
O56    O     0.25000   0.06188   0.00000   0.00000  Uiso   1.00
O57    O     0.25000   0.18688   0.08020   0.00000  Uiso   1.00
O58    O     0.25000   0.06188   0.16040   0.00000  Uiso   1.00
O59    O     0.25000   0.18688   0.24060   0.00000  Uiso   1.00
O60    O     0.25000   0.06188   0.32080   0.00000  Uiso   1.00
Ti61   Ti    0.33333   0.06188   0.03139   0.00000  Uiso   1.00
Ti62   Ti    0.33333   0.18688   0.11159   0.00000  Uiso   1.00
Ti63   Ti    0.33333   0.06188   0.19179   0.00000  Uiso   1.00
Ti64   Ti    0.33333   0.18688   0.27198   0.00000  Uiso   1.00
Ti65   Ti    0.33333   0.06188   0.35218   0.00000  Uiso   1.00
Ti66   Ti    0.41667   0.18688   0.03139   0.00000  Uiso   1.00
Ti67   Ti    0.41667   0.06188   0.11159   0.00000  Uiso   1.00
Ti68   Ti    0.41667   0.18688   0.19179   0.00000  Uiso   1.00
Ti69   Ti    0.41667   0.06188   0.27198   0.00000  Uiso   1.00
Ti70   Ti    0.41667   0.18688   0.35218   0.00000  Uiso   1.00
O71    O     0.41667   0.06188   0.06277   0.00000  Uiso   1.00
O72    O     0.41667   0.18688   0.14297   0.00000  Uiso   1.00
O73    O     0.41667   0.06188   0.22317   0.00000  Uiso   1.00
O74    O     0.41667   0.18688   0.30337   0.00000  Uiso   1.00
O75    O     0.41667   0.06188   0.38357   0.00000  Uiso   1.00
O76    O     0.33333   0.23580   0.03139   0.00000  Uiso   1.00
O77    O     0.33333   0.11080   0.11159   0.00000  Uiso   1.00
O78    O     0.33333   0.23580   0.19179   0.00000  Uiso   1.00
O79    O     0.33333   0.11080   0.27198   0.00000  Uiso   1.00
O80    O     0.33333   0.23580   0.35218   0.00000  Uiso   1.00
O81    O     0.33333   0.13796   0.03139   0.00000  Uiso   1.00
O82    O     0.33333   0.01296   0.11159   0.00000  Uiso   1.00
O83    O     0.33333   0.13796   0.19179   0.00000  Uiso   1.00
O84    O     0.33333   0.01296   0.27198   0.00000  Uiso   1.00
O85    O     0.33333   0.13796   0.35218   0.00000  Uiso   1.00
O86    O     0.41667   0.06188   0.00000   0.00000  Uiso   1.00
O87    O     0.41667   0.18688   0.08020   0.00000  Uiso   1.00
O88    O     0.41667   0.06188   0.16040   0.00000  Uiso   1.00
O89    O     0.41667   0.18688   0.24060   0.00000  Uiso   1.00
O90    O     0.41667   0.06188   0.32080   0.00000  Uiso   1.00
Ti91   Ti    0.50000   0.06188   0.03139   0.00000  Uiso   1.00
Ti92   Ti    0.50000   0.18688   0.11159   0.00000  Uiso   1.00
Ti93   Ti    0.50000   0.06188   0.19179   0.00000  Uiso   1.00
Ti94   Ti    0.50000   0.18688   0.27198   0.00000  Uiso   1.00
Ti95   Ti    0.50000   0.06188   0.35218   0.00000  Uiso   1.00
Ti96   Ti    0.58333   0.18688   0.03139   0.00000  Uiso   1.00
Ti97   Ti    0.58333   0.06188   0.11159   0.00000  Uiso   1.00
Ti98   Ti    0.58333   0.18688   0.19179   0.00000  Uiso   1.00
Ti99   Ti    0.58333   0.06188   0.27198   0.00000  Uiso   1.00
Ti100  Ti    0.58333   0.18688   0.35218   0.00000  Uiso   1.00
O101   O     0.58333   0.06188   0.06277   0.00000  Uiso   1.00
O102   O     0.58333   0.18688   0.14297   0.00000  Uiso   1.00
O103   O     0.58333   0.06188   0.22317   0.00000  Uiso   1.00
O104   O     0.58333   0.18688   0.30337   0.00000  Uiso   1.00
O105   O     0.58333   0.06188   0.38357   0.00000  Uiso   1.00
O106   O     0.50000   0.23580   0.03139   0.00000  Uiso   1.00
O107   O     0.50000   0.11080   0.11159   0.00000  Uiso   1.00
O108   O     0.50000   0.23580   0.19179   0.00000  Uiso   1.00
O109   O     0.50000   0.11080   0.27198   0.00000  Uiso   1.00
O110   O     0.50000   0.23580   0.35218   0.00000  Uiso   1.00
O111   O     0.50000   0.13796   0.03139   0.00000  Uiso   1.00
O112   O     0.50000   0.01296   0.11159   0.00000  Uiso   1.00
O113   O     0.50000   0.13796   0.19179   0.00000  Uiso   1.00
O114   O     0.50000   0.01296   0.27198   0.00000  Uiso   1.00
O115   O     0.50000   0.13796   0.35218   0.00000  Uiso   1.00
O116   O     0.58333   0.06188   0.00000   0.00000  Uiso   1.00
O117   O     0.58333   0.18688   0.08020   0.00000  Uiso   1.00
O118   O     0.58333   0.06188   0.16040   0.00000  Uiso   1.00
O119   O     0.58333   0.18688   0.24060   0.00000  Uiso   1.00
O120   O     0.58333   0.06188   0.32080   0.00000  Uiso   1.00
Ti121  Ti    0.66667   0.06188   0.03139   0.00000  Uiso   1.00
Ti122  Ti    0.66667   0.18688   0.11159   0.00000  Uiso   1.00
Ti123  Ti    0.66667   0.06188   0.19179   0.00000  Uiso   1.00
Ti124  Ti    0.66667   0.18688   0.27198   0.00000  Uiso   1.00
Ti125  Ti    0.66667   0.06188   0.35218   0.00000  Uiso   1.00
Ti126  Ti    0.75000   0.18688   0.03139   0.00000  Uiso   1.00
Ti127  Ti    0.75000   0.06188   0.11159   0.00000  Uiso   1.00
Ti128  Ti    0.75000   0.18688   0.19179   0.00000  Uiso   1.00
Ti129  Ti    0.75000   0.06188   0.27198   0.00000  Uiso   1.00
Ti130  Ti    0.75000   0.18688   0.35218   0.00000  Uiso   1.00
O131   O     0.75000   0.06188   0.06277   0.00000  Uiso   1.00
O132   O     0.75000   0.18688   0.14297   0.00000  Uiso   1.00
O133   O     0.75000   0.06188   0.22317   0.00000  Uiso   1.00
O134   O     0.75000   0.18688   0.30337   0.00000  Uiso   1.00
O135   O     0.75000   0.06188   0.38357   0.00000  Uiso   1.00
O136   O     0.66667   0.23580   0.03139   0.00000  Uiso   1.00
O137   O     0.66667   0.11080   0.11159   0.00000  Uiso   1.00
O138   O     0.66667   0.23580   0.19179   0.00000  Uiso   1.00
O139   O     0.66667   0.11080   0.27198   0.00000  Uiso   1.00
O140   O     0.66667   0.23580   0.35218   0.00000  Uiso   1.00
O141   O     0.66667   0.13796   0.03139   0.00000  Uiso   1.00
O142   O     0.66667   0.01296   0.11159   0.00000  Uiso   1.00
O143   O     0.66667   0.13796   0.19179   0.00000  Uiso   1.00
O144   O     0.66667   0.01296   0.27198   0.00000  Uiso   1.00
O145   O     0.66667   0.13796   0.35218   0.00000  Uiso   1.00
O146   O     0.75000   0.06188   0.00000   0.00000  Uiso   1.00
O147   O     0.75000   0.18688   0.08020   0.00000  Uiso   1.00
O148   O     0.75000   0.06188   0.16040   0.00000  Uiso   1.00
O149   O     0.75000   0.18688   0.24060   0.00000  Uiso   1.00
O150   O     0.75000   0.06188   0.32080   0.00000  Uiso   1.00
Ti151  Ti    0.83333   0.06188   0.03139   0.00000  Uiso   1.00
Ti152  Ti    0.83333   0.18688   0.11159   0.00000  Uiso   1.00
Ti153  Ti    0.83333   0.06188   0.19179   0.00000  Uiso   1.00
Ti154  Ti    0.83333   0.18688   0.27198   0.00000  Uiso   1.00
Ti155  Ti    0.83333   0.06188   0.35218   0.00000  Uiso   1.00
Ti156  Ti    0.91667   0.18688   0.03139   0.00000  Uiso   1.00
Ti157  Ti    0.91667   0.06188   0.11159   0.00000  Uiso   1.00
Ti158  Ti    0.91667   0.18688   0.19179   0.00000  Uiso   1.00
Ti159  Ti    0.91667   0.06188   0.27198   0.00000  Uiso   1.00
Ti160  Ti    0.91667   0.18688   0.35218   0.00000  Uiso   1.00
O161   O     0.91667   0.06188   0.06277   0.00000  Uiso   1.00
O162   O     0.91667   0.18688   0.14297   0.00000  Uiso   1.00
O163   O     0.91667   0.06188   0.22317   0.00000  Uiso   1.00
O164   O     0.91667   0.18688   0.30337   0.00000  Uiso   1.00
O165   O     0.91667   0.06188   0.38357   0.00000  Uiso   1.00
O166   O     0.83333   0.23580   0.03139   0.00000  Uiso   1.00
O167   O     0.83333   0.11080   0.11159   0.00000  Uiso   1.00
O168   O     0.83333   0.23580   0.19179   0.00000  Uiso   1.00
O169   O     0.83333   0.11080   0.27198   0.00000  Uiso   1.00
O170   O     0.83333   0.23580   0.35218   0.00000  Uiso   1.00
O171   O     0.83333   0.13796   0.03139   0.00000  Uiso   1.00
O172   O     0.83333   0.01296   0.11159   0.00000  Uiso   1.00
O173   O     0.83333   0.13796   0.19179   0.00000  Uiso   1.00
O174   O     0.83333   0.01296   0.27198   0.00000  Uiso   1.00
O175   O     0.83333   0.13796   0.35218   0.00000  Uiso   1.00
O176   O     0.91667   0.06188   0.00000   0.00000  Uiso   1.00
O177   O     0.91667   0.18688   0.08020   0.00000  Uiso   1.00
O178   O     0.91667   0.06188   0.16040   0.00000  Uiso   1.00
O179   O     0.91667   0.18688   0.24060   0.00000  Uiso   1.00
O180   O     0.91667   0.06188   0.32080   0.00000  Uiso   1.00
Ti181  Ti    0.00000   0.31188   0.03139   0.00000  Uiso   1.00
Ti182  Ti    0.00000   0.43688   0.11159   0.00000  Uiso   1.00
Ti183  Ti    0.00000   0.31188   0.19179   0.00000  Uiso   1.00
Ti184  Ti    0.00000   0.43688   0.27198   0.00000  Uiso   1.00
Ti185  Ti    0.00000   0.31188   0.35218   0.00000  Uiso   1.00
Ti186  Ti    0.08333   0.43688   0.03139   0.00000  Uiso   1.00
Ti187  Ti    0.08333   0.31188   0.11159   0.00000  Uiso   1.00
Ti188  Ti    0.08333   0.43688   0.19179   0.00000  Uiso   1.00
Ti189  Ti    0.08333   0.31188   0.27198   0.00000  Uiso   1.00
Ti190  Ti    0.08333   0.43688   0.35218   0.00000  Uiso   1.00
O191   O     0.08333   0.31188   0.06277   0.00000  Uiso   1.00
O192   O     0.08333   0.43688   0.14297   0.00000  Uiso   1.00
O193   O     0.08333   0.31188   0.22317   0.00000  Uiso   1.00
O194   O     0.08333   0.43688   0.30337   0.00000  Uiso   1.00
O195   O     0.08333   0.31188   0.38357   0.00000  Uiso   1.00
O196   O     0.00000   0.48580   0.03139   0.00000  Uiso   1.00
O197   O     0.00000   0.36080   0.11159   0.00000  Uiso   1.00
O198   O     0.00000   0.48580   0.19179   0.00000  Uiso   1.00
O199   O     0.00000   0.36080   0.27198   0.00000  Uiso   1.00
O200   O     0.00000   0.48580   0.35218   0.00000  Uiso   1.00
O201   O     0.00000   0.38796   0.03139   0.00000  Uiso   1.00
O202   O     0.00000   0.26296   0.11159   0.00000  Uiso   1.00
O203   O     0.00000   0.38796   0.19179   0.00000  Uiso   1.00
O204   O     0.00000   0.26296   0.27198   0.00000  Uiso   1.00
O205   O     0.00000   0.38796   0.35218   0.00000  Uiso   1.00
O206   O     0.08333   0.31188   0.00000   0.00000  Uiso   1.00
O207   O     0.08333   0.43688   0.08020   0.00000  Uiso   1.00
O208   O     0.08333   0.31188   0.16040   0.00000  Uiso   1.00
O209   O     0.08333   0.43688   0.24060   0.00000  Uiso   1.00
O210   O     0.08333   0.31188   0.32080   0.00000  Uiso   1.00
Ti211  Ti    0.16667   0.31188   0.03139   0.00000  Uiso   1.00
Ti212  Ti    0.16667   0.43688   0.11159   0.00000  Uiso   1.00
Ti213  Ti    0.16667   0.31188   0.19179   0.00000  Uiso   1.00
Ti214  Ti    0.16667   0.43688   0.27198   0.00000  Uiso   1.00
Ti215  Ti    0.16667   0.31188   0.35218   0.00000  Uiso   1.00
Ti216  Ti    0.25000   0.43688   0.03139   0.00000  Uiso   1.00
Ti217  Ti    0.25000   0.31188   0.11159   0.00000  Uiso   1.00
Ti218  Ti    0.25000   0.43688   0.19179   0.00000  Uiso   1.00
Ti219  Ti    0.25000   0.31188   0.27198   0.00000  Uiso   1.00
Ti220  Ti    0.25000   0.43688   0.35218   0.00000  Uiso   1.00
O221   O     0.25000   0.31188   0.06277   0.00000  Uiso   1.00
O222   O     0.25000   0.43688   0.14297   0.00000  Uiso   1.00
O223   O     0.25000   0.31188   0.22317   0.00000  Uiso   1.00
O224   O     0.25000   0.43688   0.30337   0.00000  Uiso   1.00
O225   O     0.25000   0.31188   0.38357   0.00000  Uiso   1.00
O226   O     0.16667   0.48580   0.03139   0.00000  Uiso   1.00
O227   O     0.16667   0.36080   0.11159   0.00000  Uiso   1.00
O228   O     0.16667   0.48580   0.19179   0.00000  Uiso   1.00
O229   O     0.16667   0.36080   0.27198   0.00000  Uiso   1.00
O230   O     0.16667   0.48580   0.35218   0.00000  Uiso   1.00
O231   O     0.16667   0.38796   0.03139   0.00000  Uiso   1.00
O232   O     0.16667   0.26296   0.11159   0.00000  Uiso   1.00
O233   O     0.16667   0.38796   0.19179   0.00000  Uiso   1.00
O234   O     0.16667   0.26296   0.27198   0.00000  Uiso   1.00
O235   O     0.16667   0.38796   0.35218   0.00000  Uiso   1.00
O236   O     0.25000   0.31188   0.00000   0.00000  Uiso   1.00
O237   O     0.25000   0.43688   0.08020   0.00000  Uiso   1.00
O238   O     0.25000   0.31188   0.16040   0.00000  Uiso   1.00
O239   O     0.25000   0.43688   0.24060   0.00000  Uiso   1.00
O240   O     0.25000   0.31188   0.32080   0.00000  Uiso   1.00
Ti241  Ti    0.33333   0.31188   0.03139   0.00000  Uiso   1.00
Ti242  Ti    0.33333   0.43688   0.11159   0.00000  Uiso   1.00
Ti243  Ti    0.33333   0.31188   0.19179   0.00000  Uiso   1.00
Ti244  Ti    0.33333   0.43688   0.27198   0.00000  Uiso   1.00
Ti245  Ti    0.33333   0.31188   0.35218   0.00000  Uiso   1.00
Ti246  Ti    0.41667   0.43688   0.03139   0.00000  Uiso   1.00
Ti247  Ti    0.41667   0.31188   0.11159   0.00000  Uiso   1.00
Ti248  Ti    0.41667   0.43688   0.19179   0.00000  Uiso   1.00
Ti249  Ti    0.41667   0.31188   0.27198   0.00000  Uiso   1.00
Ti250  Ti    0.41667   0.43688   0.35218   0.00000  Uiso   1.00
O251   O     0.41667   0.31188   0.06277   0.00000  Uiso   1.00
O252   O     0.41667   0.43688   0.14297   0.00000  Uiso   1.00
O253   O     0.41667   0.31188   0.22317   0.00000  Uiso   1.00
O254   O     0.41667   0.43688   0.30337   0.00000  Uiso   1.00
O255   O     0.41667   0.31188   0.38357   0.00000  Uiso   1.00
O256   O     0.33333   0.48580   0.03139   0.00000  Uiso   1.00
O257   O     0.33333   0.36080   0.11159   0.00000  Uiso   1.00
O258   O     0.33333   0.48580   0.19179   0.00000  Uiso   1.00
O259   O     0.33333   0.36080   0.27198   0.00000  Uiso   1.00
O260   O     0.33333   0.48580   0.35218   0.00000  Uiso   1.00
O261   O     0.33333   0.38796   0.03139   0.00000  Uiso   1.00
O262   O     0.33333   0.26296   0.11159   0.00000  Uiso   1.00
O263   O     0.33333   0.38796   0.19179   0.00000  Uiso   1.00
O264   O     0.33333   0.26296   0.27198   0.00000  Uiso   1.00
O265   O     0.33333   0.38796   0.35218   0.00000  Uiso   1.00
O266   O     0.41667   0.31188   0.00000   0.00000  Uiso   1.00
O267   O     0.41667   0.43688   0.08020   0.00000  Uiso   1.00
O268   O     0.41667   0.31188   0.16040   0.00000  Uiso   1.00
O269   O     0.41667   0.43688   0.24060   0.00000  Uiso   1.00
O270   O     0.41667   0.31188   0.32080   0.00000  Uiso   1.00
Ti271  Ti    0.50000   0.31188   0.03139   0.00000  Uiso   1.00
Ti272  Ti    0.50000   0.43688   0.11159   0.00000  Uiso   1.00
Ti273  Ti    0.50000   0.31188   0.19179   0.00000  Uiso   1.00
Ti274  Ti    0.50000   0.43688   0.27198   0.00000  Uiso   1.00
Ti275  Ti    0.50000   0.31188   0.35218   0.00000  Uiso   1.00
Ti276  Ti    0.58333   0.43688   0.03139   0.00000  Uiso   1.00
Ti277  Ti    0.58333   0.31188   0.11159   0.00000  Uiso   1.00
Ti278  Ti    0.58333   0.43688   0.19179   0.00000  Uiso   1.00
Ti279  Ti    0.58333   0.31188   0.27198   0.00000  Uiso   1.00
Ti280  Ti    0.58333   0.43688   0.35218   0.00000  Uiso   1.00
O281   O     0.58333   0.31188   0.06277   0.00000  Uiso   1.00
O282   O     0.58333   0.43688   0.14297   0.00000  Uiso   1.00
O283   O     0.58333   0.31188   0.22317   0.00000  Uiso   1.00
O284   O     0.58333   0.43688   0.30337   0.00000  Uiso   1.00
O285   O     0.58333   0.31188   0.38357   0.00000  Uiso   1.00
O286   O     0.50000   0.48580   0.03139   0.00000  Uiso   1.00
O287   O     0.50000   0.36080   0.11159   0.00000  Uiso   1.00
O288   O     0.50000   0.48580   0.19179   0.00000  Uiso   1.00
O289   O     0.50000   0.36080   0.27198   0.00000  Uiso   1.00
O290   O     0.50000   0.48580   0.35218   0.00000  Uiso   1.00
O291   O     0.50000   0.38796   0.03139   0.00000  Uiso   1.00
O292   O     0.50000   0.26296   0.11159   0.00000  Uiso   1.00
O293   O     0.50000   0.38796   0.19179   0.00000  Uiso   1.00
O294   O     0.50000   0.26296   0.27198   0.00000  Uiso   1.00
O295   O     0.50000   0.38796   0.35218   0.00000  Uiso   1.00
O296   O     0.58333   0.31188   0.00000   0.00000  Uiso   1.00
O297   O     0.58333   0.43688   0.08020   0.00000  Uiso   1.00
O298   O     0.58333   0.31188   0.16040   0.00000  Uiso   1.00
O299   O     0.58333   0.43688   0.24060   0.00000  Uiso   1.00
O300   O     0.58333   0.31188   0.32080   0.00000  Uiso   1.00
Ti301  Ti    0.66667   0.31188   0.03139   0.00000  Uiso   1.00
Ti302  Ti    0.66667   0.43688   0.11159   0.00000  Uiso   1.00
Ti303  Ti    0.66667   0.31188   0.19179   0.00000  Uiso   1.00
Ti304  Ti    0.66667   0.43688   0.27198   0.00000  Uiso   1.00
Ti305  Ti    0.66667   0.31188   0.35218   0.00000  Uiso   1.00
Ti306  Ti    0.75000   0.43688   0.03139   0.00000  Uiso   1.00
Ti307  Ti    0.75000   0.31188   0.11159   0.00000  Uiso   1.00
Ti308  Ti    0.75000   0.43688   0.19179   0.00000  Uiso   1.00
Ti309  Ti    0.75000   0.31188   0.27198   0.00000  Uiso   1.00
Ti310  Ti    0.75000   0.43688   0.35218   0.00000  Uiso   1.00
O311   O     0.75000   0.31188   0.06277   0.00000  Uiso   1.00
O312   O     0.75000   0.43688   0.14297   0.00000  Uiso   1.00
O313   O     0.75000   0.31188   0.22317   0.00000  Uiso   1.00
O314   O     0.75000   0.43688   0.30337   0.00000  Uiso   1.00
O315   O     0.75000   0.31188   0.38357   0.00000  Uiso   1.00
O316   O     0.66667   0.48580   0.03139   0.00000  Uiso   1.00
O317   O     0.66667   0.36080   0.11159   0.00000  Uiso   1.00
O318   O     0.66667   0.48580   0.19179   0.00000  Uiso   1.00
O319   O     0.66667   0.36080   0.27198   0.00000  Uiso   1.00
O320   O     0.66667   0.48580   0.35218   0.00000  Uiso   1.00
O321   O     0.66667   0.38796   0.03139   0.00000  Uiso   1.00
O322   O     0.66667   0.26296   0.11159   0.00000  Uiso   1.00
O323   O     0.66667   0.38796   0.19179   0.00000  Uiso   1.00
O324   O     0.66667   0.26296   0.27198   0.00000  Uiso   1.00
O325   O     0.66667   0.38796   0.35218   0.00000  Uiso   1.00
O326   O     0.75000   0.31188   0.00000   0.00000  Uiso   1.00
O327   O     0.75000   0.43688   0.08020   0.00000  Uiso   1.00
O328   O     0.75000   0.31188   0.16040   0.00000  Uiso   1.00
O329   O     0.75000   0.43688   0.24060   0.00000  Uiso   1.00
O330   O     0.75000   0.31188   0.32080   0.00000  Uiso   1.00
Ti331  Ti    0.83333   0.31188   0.03139   0.00000  Uiso   1.00
Ti332  Ti    0.83333   0.43688   0.11159   0.00000  Uiso   1.00
Ti333  Ti    0.83333   0.31188   0.19179   0.00000  Uiso   1.00
Ti334  Ti    0.83333   0.43688   0.27198   0.00000  Uiso   1.00
Ti335  Ti    0.83333   0.31188   0.35218   0.00000  Uiso   1.00
Ti336  Ti    0.91667   0.43688   0.03139   0.00000  Uiso   1.00
Ti337  Ti    0.91667   0.31188   0.11159   0.00000  Uiso   1.00
Ti338  Ti    0.91667   0.43688   0.19179   0.00000  Uiso   1.00
Ti339  Ti    0.91667   0.31188   0.27198   0.00000  Uiso   1.00
Ti340  Ti    0.91667   0.43688   0.35218   0.00000  Uiso   1.00
O341   O     0.91667   0.31188   0.06277   0.00000  Uiso   1.00
O342   O     0.91667   0.43688   0.14297   0.00000  Uiso   1.00
O343   O     0.91667   0.31188   0.22317   0.00000  Uiso   1.00
O344   O     0.91667   0.43688   0.30337   0.00000  Uiso   1.00
O345   O     0.91667   0.31188   0.38357   0.00000  Uiso   1.00
O346   O     0.83333   0.48580   0.03139   0.00000  Uiso   1.00
O347   O     0.83333   0.36080   0.11159   0.00000  Uiso   1.00
O348   O     0.83333   0.48580   0.19179   0.00000  Uiso   1.00
O349   O     0.83333   0.36080   0.27198   0.00000  Uiso   1.00
O350   O     0.83333   0.48580   0.35218   0.00000  Uiso   1.00
O351   O     0.83333   0.38796   0.03139   0.00000  Uiso   1.00
O352   O     0.83333   0.26296   0.11159   0.00000  Uiso   1.00
O353   O     0.83333   0.38796   0.19179   0.00000  Uiso   1.00
O354   O     0.83333   0.26296   0.27198   0.00000  Uiso   1.00
O355   O     0.83333   0.38796   0.35218   0.00000  Uiso   1.00
O356   O     0.91667   0.31188   0.00000   0.00000  Uiso   1.00
O357   O     0.91667   0.43688   0.08020   0.00000  Uiso   1.00
O358   O     0.91667   0.31188   0.16040   0.00000  Uiso   1.00
O359   O     0.91667   0.43688   0.24060   0.00000  Uiso   1.00
O360   O     0.91667   0.31188   0.32080   0.00000  Uiso   1.00
Ti361  Ti    0.00000   0.56188   0.03139   0.00000  Uiso   1.00
Ti362  Ti    0.00000   0.68688   0.11159   0.00000  Uiso   1.00
Ti363  Ti    0.00000   0.56188   0.19179   0.00000  Uiso   1.00
Ti364  Ti    0.00000   0.68688   0.27198   0.00000  Uiso   1.00
Ti365  Ti    0.00000   0.56188   0.35218   0.00000  Uiso   1.00
Ti366  Ti    0.08333   0.68688   0.03139   0.00000  Uiso   1.00
Ti367  Ti    0.08333   0.56188   0.11159   0.00000  Uiso   1.00
Ti368  Ti    0.08333   0.68688   0.19179   0.00000  Uiso   1.00
Ti369  Ti    0.08333   0.56188   0.27198   0.00000  Uiso   1.00
Ti370  Ti    0.08333   0.68688   0.35218   0.00000  Uiso   1.00
O371   O     0.08333   0.56188   0.06277   0.00000  Uiso   1.00
O372   O     0.08333   0.68688   0.14297   0.00000  Uiso   1.00
O373   O     0.08333   0.56188   0.22317   0.00000  Uiso   1.00
O374   O     0.08333   0.68688   0.30337   0.00000  Uiso   1.00
O375   O     0.08333   0.56188   0.38357   0.00000  Uiso   1.00
O376   O     0.00000   0.73580   0.03139   0.00000  Uiso   1.00
O377   O     0.00000   0.61080   0.11159   0.00000  Uiso   1.00
O378   O     0.00000   0.73580   0.19179   0.00000  Uiso   1.00
O379   O     0.00000   0.61080   0.27198   0.00000  Uiso   1.00
O380   O     0.00000   0.73580   0.35218   0.00000  Uiso   1.00
O381   O     0.00000   0.63796   0.03139   0.00000  Uiso   1.00
O382   O     0.00000   0.51296   0.11159   0.00000  Uiso   1.00
O383   O     0.00000   0.63796   0.19179   0.00000  Uiso   1.00
O384   O     0.00000   0.51296   0.27198   0.00000  Uiso   1.00
O385   O     0.00000   0.63796   0.35218   0.00000  Uiso   1.00
O386   O     0.08333   0.56188   0.00000   0.00000  Uiso   1.00
O387   O     0.08333   0.68688   0.08020   0.00000  Uiso   1.00
O388   O     0.08333   0.56188   0.16040   0.00000  Uiso   1.00
O389   O     0.08333   0.68688   0.24060   0.00000  Uiso   1.00
O390   O     0.08333   0.56188   0.32080   0.00000  Uiso   1.00
Ti391  Ti    0.16667   0.56188   0.03139   0.00000  Uiso   1.00
Ti392  Ti    0.16667   0.68688   0.11159   0.00000  Uiso   1.00
Ti393  Ti    0.16667   0.56188   0.19179   0.00000  Uiso   1.00
Ti394  Ti    0.16667   0.68688   0.27198   0.00000  Uiso   1.00
Ti395  Ti    0.16667   0.56188   0.35218   0.00000  Uiso   1.00
Ti396  Ti    0.25000   0.68688   0.03139   0.00000  Uiso   1.00
Ti397  Ti    0.25000   0.56188   0.11159   0.00000  Uiso   1.00
Ti398  Ti    0.25000   0.68688   0.19179   0.00000  Uiso   1.00
Ti399  Ti    0.25000   0.56188   0.27198   0.00000  Uiso   1.00
Ti400  Ti    0.25000   0.68688   0.35218   0.00000  Uiso   1.00
O401   O     0.25000   0.56188   0.06277   0.00000  Uiso   1.00
O402   O     0.25000   0.68688   0.14297   0.00000  Uiso   1.00
O403   O     0.25000   0.56188   0.22317   0.00000  Uiso   1.00
O404   O     0.25000   0.68688   0.30337   0.00000  Uiso   1.00
O405   O     0.25000   0.56188   0.38357   0.00000  Uiso   1.00
O406   O     0.16667   0.73580   0.03139   0.00000  Uiso   1.00
O407   O     0.16667   0.61080   0.11159   0.00000  Uiso   1.00
O408   O     0.16667   0.73580   0.19179   0.00000  Uiso   1.00
O409   O     0.16667   0.61080   0.27198   0.00000  Uiso   1.00
O410   O     0.16667   0.73580   0.35218   0.00000  Uiso   1.00
O411   O     0.16667   0.63796   0.03139   0.00000  Uiso   1.00
O412   O     0.16667   0.51296   0.11159   0.00000  Uiso   1.00
O413   O     0.16667   0.63796   0.19179   0.00000  Uiso   1.00
O414   O     0.16667   0.51296   0.27198   0.00000  Uiso   1.00
O415   O     0.16667   0.63796   0.35218   0.00000  Uiso   1.00
O416   O     0.25000   0.56188   0.00000   0.00000  Uiso   1.00
O417   O     0.25000   0.68688   0.08020   0.00000  Uiso   1.00
O418   O     0.25000   0.56188   0.16040   0.00000  Uiso   1.00
O419   O     0.25000   0.68688   0.24060   0.00000  Uiso   1.00
O420   O     0.25000   0.56188   0.32080   0.00000  Uiso   1.00
Ti421  Ti    0.33333   0.56188   0.03139   0.00000  Uiso   1.00
Ti422  Ti    0.33333   0.68688   0.11159   0.00000  Uiso   1.00
Ti423  Ti    0.33333   0.56188   0.19179   0.00000  Uiso   1.00
Ti424  Ti    0.33333   0.68688   0.27198   0.00000  Uiso   1.00
Ti425  Ti    0.33333   0.56188   0.35218   0.00000  Uiso   1.00
Ti426  Ti    0.41667   0.68688   0.03139   0.00000  Uiso   1.00
Ti427  Ti    0.41667   0.56188   0.11159   0.00000  Uiso   1.00
Ti428  Ti    0.41667   0.68688   0.19179   0.00000  Uiso   1.00
Ti429  Ti    0.41667   0.56188   0.27198   0.00000  Uiso   1.00
Ti430  Ti    0.41667   0.68688   0.35218   0.00000  Uiso   1.00
O431   O     0.41667   0.56188   0.06277   0.00000  Uiso   1.00
O432   O     0.41667   0.68688   0.14297   0.00000  Uiso   1.00
O433   O     0.41667   0.56188   0.22317   0.00000  Uiso   1.00
O434   O     0.41667   0.68688   0.30337   0.00000  Uiso   1.00
O435   O     0.41667   0.56188   0.38357   0.00000  Uiso   1.00
O436   O     0.33333   0.73580   0.03139   0.00000  Uiso   1.00
O437   O     0.33333   0.61080   0.11159   0.00000  Uiso   1.00
O438   O     0.33333   0.73580   0.19179   0.00000  Uiso   1.00
O439   O     0.33333   0.61080   0.27198   0.00000  Uiso   1.00
O440   O     0.33333   0.73580   0.35218   0.00000  Uiso   1.00
O441   O     0.33333   0.63796   0.03139   0.00000  Uiso   1.00
O442   O     0.33333   0.51296   0.11159   0.00000  Uiso   1.00
O443   O     0.33333   0.63796   0.19179   0.00000  Uiso   1.00
O444   O     0.33333   0.51296   0.27198   0.00000  Uiso   1.00
O445   O     0.33333   0.63796   0.35218   0.00000  Uiso   1.00
O446   O     0.41667   0.56188   0.00000   0.00000  Uiso   1.00
O447   O     0.41667   0.68688   0.08020   0.00000  Uiso   1.00
O448   O     0.41667   0.56188   0.16040   0.00000  Uiso   1.00
O449   O     0.41667   0.68688   0.24060   0.00000  Uiso   1.00
O450   O     0.41667   0.56188   0.32080   0.00000  Uiso   1.00
Ti451  Ti    0.50000   0.56188   0.03139   0.00000  Uiso   1.00
Ti452  Ti    0.50000   0.68688   0.11159   0.00000  Uiso   1.00
Ti453  Ti    0.50000   0.56188   0.19179   0.00000  Uiso   1.00
Ti454  Ti    0.50000   0.68688   0.27198   0.00000  Uiso   1.00
Ti455  Ti    0.50000   0.56188   0.35218   0.00000  Uiso   1.00
Ti456  Ti    0.58333   0.68688   0.03139   0.00000  Uiso   1.00
Ti457  Ti    0.58333   0.56188   0.11159   0.00000  Uiso   1.00
Ti458  Ti    0.58333   0.68688   0.19179   0.00000  Uiso   1.00
Ti459  Ti    0.58333   0.56188   0.27198   0.00000  Uiso   1.00
Ti460  Ti    0.58333   0.68688   0.35218   0.00000  Uiso   1.00
O461   O     0.58333   0.56188   0.06277   0.00000  Uiso   1.00
O462   O     0.58333   0.68688   0.14297   0.00000  Uiso   1.00
O463   O     0.58333   0.56188   0.22317   0.00000  Uiso   1.00
O464   O     0.58333   0.68688   0.30337   0.00000  Uiso   1.00
O465   O     0.58333   0.56188   0.38357   0.00000  Uiso   1.00
O466   O     0.50000   0.73580   0.03139   0.00000  Uiso   1.00
O467   O     0.50000   0.61080   0.11159   0.00000  Uiso   1.00
O468   O     0.50000   0.73580   0.19179   0.00000  Uiso   1.00
O469   O     0.50000   0.61080   0.27198   0.00000  Uiso   1.00
O470   O     0.50000   0.73580   0.35218   0.00000  Uiso   1.00
O471   O     0.50000   0.63796   0.03139   0.00000  Uiso   1.00
O472   O     0.50000   0.51296   0.11159   0.00000  Uiso   1.00
O473   O     0.50000   0.63796   0.19179   0.00000  Uiso   1.00
O474   O     0.50000   0.51296   0.27198   0.00000  Uiso   1.00
O475   O     0.50000   0.63796   0.35218   0.00000  Uiso   1.00
O476   O     0.58333   0.56188   0.00000   0.00000  Uiso   1.00
O477   O     0.58333   0.68688   0.08020   0.00000  Uiso   1.00
O478   O     0.58333   0.56188   0.16040   0.00000  Uiso   1.00
O479   O     0.58333   0.68688   0.24060   0.00000  Uiso   1.00
O480   O     0.58333   0.56188   0.32080   0.00000  Uiso   1.00
Ti481  Ti    0.66667   0.56188   0.03139   0.00000  Uiso   1.00
Ti482  Ti    0.66667   0.68688   0.11159   0.00000  Uiso   1.00
Ti483  Ti    0.66667   0.56188   0.19179   0.00000  Uiso   1.00
Ti484  Ti    0.66667   0.68688   0.27198   0.00000  Uiso   1.00
Ti485  Ti    0.66667   0.56188   0.35218   0.00000  Uiso   1.00
Ti486  Ti    0.75000   0.68688   0.03139   0.00000  Uiso   1.00
Ti487  Ti    0.75000   0.56188   0.11159   0.00000  Uiso   1.00
Ti488  Ti    0.75000   0.68688   0.19179   0.00000  Uiso   1.00
Ti489  Ti    0.75000   0.56188   0.27198   0.00000  Uiso   1.00
Ti490  Ti    0.75000   0.68688   0.35218   0.00000  Uiso   1.00
O491   O     0.75000   0.56188   0.06277   0.00000  Uiso   1.00
O492   O     0.75000   0.68688   0.14297   0.00000  Uiso   1.00
O493   O     0.75000   0.56188   0.22317   0.00000  Uiso   1.00
O494   O     0.75000   0.68688   0.30337   0.00000  Uiso   1.00
O495   O     0.75000   0.56188   0.38357   0.00000  Uiso   1.00
O496   O     0.66667   0.73580   0.03139   0.00000  Uiso   1.00
O497   O     0.66667   0.61080   0.11159   0.00000  Uiso   1.00
O498   O     0.66667   0.73580   0.19179   0.00000  Uiso   1.00
O499   O     0.66667   0.61080   0.27198   0.00000  Uiso   1.00
O500   O     0.66667   0.73580   0.35218   0.00000  Uiso   1.00
O501   O     0.66667   0.63796   0.03139   0.00000  Uiso   1.00
O502   O     0.66667   0.51296   0.11159   0.00000  Uiso   1.00
O503   O     0.66667   0.63796   0.19179   0.00000  Uiso   1.00
O504   O     0.66667   0.51296   0.27198   0.00000  Uiso   1.00
O505   O     0.66667   0.63796   0.35218   0.00000  Uiso   1.00
O506   O     0.75000   0.56188   0.00000   0.00000  Uiso   1.00
O507   O     0.75000   0.68688   0.08020   0.00000  Uiso   1.00
O508   O     0.75000   0.56188   0.16040   0.00000  Uiso   1.00
O509   O     0.75000   0.68688   0.24060   0.00000  Uiso   1.00
O510   O     0.75000   0.56188   0.32080   0.00000  Uiso   1.00
Ti511  Ti    0.83333   0.56188   0.03139   0.00000  Uiso   1.00
Ti512  Ti    0.83333   0.68688   0.11159   0.00000  Uiso   1.00
Ti513  Ti    0.83333   0.56188   0.19179   0.00000  Uiso   1.00
Ti514  Ti    0.83333   0.68688   0.27198   0.00000  Uiso   1.00
Ti515  Ti    0.83333   0.56188   0.35218   0.00000  Uiso   1.00
Ti516  Ti    0.91667   0.68688   0.03139   0.00000  Uiso   1.00
Ti517  Ti    0.91667   0.56188   0.11159   0.00000  Uiso   1.00
Ti518  Ti    0.91667   0.68688   0.19179   0.00000  Uiso   1.00
Ti519  Ti    0.91667   0.56188   0.27198   0.00000  Uiso   1.00
Ti520  Ti    0.91667   0.68688   0.35218   0.00000  Uiso   1.00
O521   O     0.91667   0.56188   0.06277   0.00000  Uiso   1.00
O522   O     0.91667   0.68688   0.14297   0.00000  Uiso   1.00
O523   O     0.91667   0.56188   0.22317   0.00000  Uiso   1.00
O524   O     0.91667   0.68688   0.30337   0.00000  Uiso   1.00
O525   O     0.91667   0.56188   0.38357   0.00000  Uiso   1.00
O526   O     0.83333   0.73580   0.03139   0.00000  Uiso   1.00
O527   O     0.83333   0.61080   0.11159   0.00000  Uiso   1.00
O528   O     0.83333   0.73580   0.19179   0.00000  Uiso   1.00
O529   O     0.83333   0.61080   0.27198   0.00000  Uiso   1.00
O530   O     0.83333   0.73580   0.35218   0.00000  Uiso   1.00
O531   O     0.83333   0.63796   0.03139   0.00000  Uiso   1.00
O532   O     0.83333   0.51296   0.11159   0.00000  Uiso   1.00
O533   O     0.83333   0.63796   0.19179   0.00000  Uiso   1.00
O534   O     0.83333   0.51296   0.27198   0.00000  Uiso   1.00
O535   O     0.83333   0.63796   0.35218   0.00000  Uiso   1.00
O536   O     0.91667   0.56188   0.00000   0.00000  Uiso   1.00
O537   O     0.91667   0.68688   0.08020   0.00000  Uiso   1.00
O538   O     0.91667   0.56188   0.16040   0.00000  Uiso   1.00
O539   O     0.91667   0.68688   0.24060   0.00000  Uiso   1.00
O540   O     0.91667   0.56188   0.32080   0.00000  Uiso   1.00
Ti541  Ti    0.00000   0.81188   0.03139   0.00000  Uiso   1.00
Ti542  Ti    0.00000   0.93688   0.11159   0.00000  Uiso   1.00
Ti543  Ti    0.00000   0.81188   0.19179   0.00000  Uiso   1.00
Ti544  Ti    0.00000   0.93688   0.27198   0.00000  Uiso   1.00
Ti545  Ti    0.00000   0.81188   0.35218   0.00000  Uiso   1.00
Ti546  Ti    0.08333   0.93688   0.03139   0.00000  Uiso   1.00
Ti547  Ti    0.08333   0.81188   0.11159   0.00000  Uiso   1.00
Ti548  Ti    0.08333   0.93688   0.19179   0.00000  Uiso   1.00
Ti549  Ti    0.08333   0.81188   0.27198   0.00000  Uiso   1.00
Ti550  Ti    0.08333   0.93688   0.35218   0.00000  Uiso   1.00
O551   O     0.08333   0.81188   0.06277   0.00000  Uiso   1.00
O552   O     0.08333   0.93688   0.14297   0.00000  Uiso   1.00
O553   O     0.08333   0.81188   0.22317   0.00000  Uiso   1.00
O554   O     0.08333   0.93688   0.30337   0.00000  Uiso   1.00
O555   O     0.08333   0.81188   0.38357   0.00000  Uiso   1.00
O556   O     0.00000   0.98580   0.03139   0.00000  Uiso   1.00
O557   O     0.00000   0.86080   0.11159   0.00000  Uiso   1.00
O558   O     0.00000   0.98580   0.19179   0.00000  Uiso   1.00
O559   O     0.00000   0.86080   0.27198   0.00000  Uiso   1.00
O560   O     0.00000   0.98580   0.35218   0.00000  Uiso   1.00
O561   O     0.00000   0.88796   0.03139   0.00000  Uiso   1.00
O562   O     0.00000   0.76296   0.11159   0.00000  Uiso   1.00
O563   O     0.00000   0.88796   0.19179   0.00000  Uiso   1.00
O564   O     0.00000   0.76296   0.27198   0.00000  Uiso   1.00
O565   O     0.00000   0.88796   0.35218   0.00000  Uiso   1.00
O566   O     0.08333   0.81188   0.00000   0.00000  Uiso   1.00
O567   O     0.08333   0.93688   0.08020   0.00000  Uiso   1.00
O568   O     0.08333   0.81188   0.16040   0.00000  Uiso   1.00
O569   O     0.08333   0.93688   0.24060   0.00000  Uiso   1.00
O570   O     0.08333   0.81188   0.32080   0.00000  Uiso   1.00
Ti571  Ti    0.16667   0.81188   0.03139   0.00000  Uiso   1.00
Ti572  Ti    0.16667   0.93688   0.11159   0.00000  Uiso   1.00
Ti573  Ti    0.16667   0.81188   0.19179   0.00000  Uiso   1.00
Ti574  Ti    0.16667   0.93688   0.27198   0.00000  Uiso   1.00
Ti575  Ti    0.16667   0.81188   0.35218   0.00000  Uiso   1.00
Ti576  Ti    0.25000   0.93688   0.03139   0.00000  Uiso   1.00
Ti577  Ti    0.25000   0.81188   0.11159   0.00000  Uiso   1.00
Ti578  Ti    0.25000   0.93688   0.19179   0.00000  Uiso   1.00
Ti579  Ti    0.25000   0.81188   0.27198   0.00000  Uiso   1.00
Ti580  Ti    0.25000   0.93688   0.35218   0.00000  Uiso   1.00
O581   O     0.25000   0.81188   0.06277   0.00000  Uiso   1.00
O582   O     0.25000   0.93688   0.14297   0.00000  Uiso   1.00
O583   O     0.25000   0.81188   0.22317   0.00000  Uiso   1.00
O584   O     0.25000   0.93688   0.30337   0.00000  Uiso   1.00
O585   O     0.25000   0.81188   0.38357   0.00000  Uiso   1.00
O586   O     0.16667   0.98580   0.03139   0.00000  Uiso   1.00
O587   O     0.16667   0.86080   0.11159   0.00000  Uiso   1.00
O588   O     0.16667   0.98580   0.19179   0.00000  Uiso   1.00
O589   O     0.16667   0.86080   0.27198   0.00000  Uiso   1.00
O590   O     0.16667   0.98580   0.35218   0.00000  Uiso   1.00
O591   O     0.16667   0.88796   0.03139   0.00000  Uiso   1.00
O592   O     0.16667   0.76296   0.11159   0.00000  Uiso   1.00
O593   O     0.16667   0.88796   0.19179   0.00000  Uiso   1.00
O594   O     0.16667   0.76296   0.27198   0.00000  Uiso   1.00
O595   O     0.16667   0.88796   0.35218   0.00000  Uiso   1.00
O596   O     0.25000   0.81188   0.00000   0.00000  Uiso   1.00
O597   O     0.25000   0.93688   0.08020   0.00000  Uiso   1.00
O598   O     0.25000   0.81188   0.16040   0.00000  Uiso   1.00
O599   O     0.25000   0.93688   0.24060   0.00000  Uiso   1.00
O600   O     0.25000   0.81188   0.32080   0.00000  Uiso   1.00
Ti601  Ti    0.33333   0.81188   0.03139   0.00000  Uiso   1.00
Ti602  Ti    0.33333   0.93688   0.11159   0.00000  Uiso   1.00
Ti603  Ti    0.33333   0.81188   0.19179   0.00000  Uiso   1.00
Ti604  Ti    0.33333   0.93688   0.27198   0.00000  Uiso   1.00
Ti605  Ti    0.33333   0.81188   0.35218   0.00000  Uiso   1.00
Ti606  Ti    0.41667   0.93688   0.03139   0.00000  Uiso   1.00
Ti607  Ti    0.41667   0.81188   0.11159   0.00000  Uiso   1.00
Ti608  Ti    0.41667   0.93688   0.19179   0.00000  Uiso   1.00
Ti609  Ti    0.41667   0.81188   0.27198   0.00000  Uiso   1.00
Ti610  Ti    0.41667   0.93688   0.35218   0.00000  Uiso   1.00
O611   O     0.41667   0.81188   0.06277   0.00000  Uiso   1.00
O612   O     0.41667   0.93688   0.14297   0.00000  Uiso   1.00
O613   O     0.41667   0.81188   0.22317   0.00000  Uiso   1.00
O614   O     0.41667   0.93688   0.30337   0.00000  Uiso   1.00
O615   O     0.41667   0.81188   0.38357   0.00000  Uiso   1.00
O616   O     0.33333   0.98580   0.03139   0.00000  Uiso   1.00
O617   O     0.33333   0.86080   0.11159   0.00000  Uiso   1.00
O618   O     0.33333   0.98580   0.19179   0.00000  Uiso   1.00
O619   O     0.33333   0.86080   0.27198   0.00000  Uiso   1.00
O620   O     0.33333   0.98580   0.35218   0.00000  Uiso   1.00
O621   O     0.33333   0.88796   0.03139   0.00000  Uiso   1.00
O622   O     0.33333   0.76296   0.11159   0.00000  Uiso   1.00
O623   O     0.33333   0.88796   0.19179   0.00000  Uiso   1.00
O624   O     0.33333   0.76296   0.27198   0.00000  Uiso   1.00
O625   O     0.33333   0.88796   0.35218   0.00000  Uiso   1.00
O626   O     0.41667   0.81188   0.00000   0.00000  Uiso   1.00
O627   O     0.41667   0.93688   0.08020   0.00000  Uiso   1.00
O628   O     0.41667   0.81188   0.16040   0.00000  Uiso   1.00
O629   O     0.41667   0.93688   0.24060   0.00000  Uiso   1.00
O630   O     0.41667   0.81188   0.32080   0.00000  Uiso   1.00
Ti631  Ti    0.50000   0.81188   0.03139   0.00000  Uiso   1.00
Ti632  Ti    0.50000   0.93688   0.11159   0.00000  Uiso   1.00
Ti633  Ti    0.50000   0.81188   0.19179   0.00000  Uiso   1.00
Ti634  Ti    0.50000   0.93688   0.27198   0.00000  Uiso   1.00
Ti635  Ti    0.50000   0.81188   0.35218   0.00000  Uiso   1.00
Ti636  Ti    0.58333   0.93688   0.03139   0.00000  Uiso   1.00
Ti637  Ti    0.58333   0.81188   0.11159   0.00000  Uiso   1.00
Ti638  Ti    0.58333   0.93688   0.19179   0.00000  Uiso   1.00
Ti639  Ti    0.58333   0.81188   0.27198   0.00000  Uiso   1.00
Ti640  Ti    0.58333   0.93688   0.35218   0.00000  Uiso   1.00
O641   O     0.58333   0.81188   0.06277   0.00000  Uiso   1.00
O642   O     0.58333   0.93688   0.14297   0.00000  Uiso   1.00
O643   O     0.58333   0.81188   0.22317   0.00000  Uiso   1.00
O644   O     0.58333   0.93688   0.30337   0.00000  Uiso   1.00
O645   O     0.58333   0.81188   0.38357   0.00000  Uiso   1.00
O646   O     0.50000   0.98580   0.03139   0.00000  Uiso   1.00
O647   O     0.50000   0.86080   0.11159   0.00000  Uiso   1.00
O648   O     0.50000   0.98580   0.19179   0.00000  Uiso   1.00
O649   O     0.50000   0.86080   0.27198   0.00000  Uiso   1.00
O650   O     0.50000   0.98580   0.35218   0.00000  Uiso   1.00
O651   O     0.50000   0.88796   0.03139   0.00000  Uiso   1.00
O652   O     0.50000   0.76296   0.11159   0.00000  Uiso   1.00
O653   O     0.50000   0.88796   0.19179   0.00000  Uiso   1.00
O654   O     0.50000   0.76296   0.27198   0.00000  Uiso   1.00
O655   O     0.50000   0.88796   0.35218   0.00000  Uiso   1.00
O656   O     0.58333   0.81188   0.00000   0.00000  Uiso   1.00
O657   O     0.58333   0.93688   0.08020   0.00000  Uiso   1.00
O658   O     0.58333   0.81188   0.16040   0.00000  Uiso   1.00
O659   O     0.58333   0.93688   0.24060   0.00000  Uiso   1.00
O660   O     0.58333   0.81188   0.32080   0.00000  Uiso   1.00
Ti661  Ti    0.66667   0.81188   0.03139   0.00000  Uiso   1.00
Ti662  Ti    0.66667   0.93688   0.11159   0.00000  Uiso   1.00
Ti663  Ti    0.66667   0.81188   0.19179   0.00000  Uiso   1.00
Ti664  Ti    0.66667   0.93688   0.27198   0.00000  Uiso   1.00
Ti665  Ti    0.66667   0.81188   0.35218   0.00000  Uiso   1.00
Ti666  Ti    0.75000   0.93688   0.03139   0.00000  Uiso   1.00
Ti667  Ti    0.75000   0.81188   0.11159   0.00000  Uiso   1.00
Ti668  Ti    0.75000   0.93688   0.19179   0.00000  Uiso   1.00
Ti669  Ti    0.75000   0.81188   0.27198   0.00000  Uiso   1.00
Ti670  Ti    0.75000   0.93688   0.35218   0.00000  Uiso   1.00
O671   O     0.75000   0.81188   0.06277   0.00000  Uiso   1.00
O672   O     0.75000   0.93688   0.14297   0.00000  Uiso   1.00
O673   O     0.75000   0.81188   0.22317   0.00000  Uiso   1.00
O674   O     0.75000   0.93688   0.30337   0.00000  Uiso   1.00
O675   O     0.75000   0.81188   0.38357   0.00000  Uiso   1.00
O676   O     0.66667   0.98580   0.03139   0.00000  Uiso   1.00
O677   O     0.66667   0.86080   0.11159   0.00000  Uiso   1.00
O678   O     0.66667   0.98580   0.19179   0.00000  Uiso   1.00
O679   O     0.66667   0.86080   0.27198   0.00000  Uiso   1.00
O680   O     0.66667   0.98580   0.35218   0.00000  Uiso   1.00
O681   O     0.66667   0.88796   0.03139   0.00000  Uiso   1.00
O682   O     0.66667   0.76296   0.11159   0.00000  Uiso   1.00
O683   O     0.66667   0.88796   0.19179   0.00000  Uiso   1.00
O684   O     0.66667   0.76296   0.27198   0.00000  Uiso   1.00
O685   O     0.66667   0.88796   0.35218   0.00000  Uiso   1.00
O686   O     0.75000   0.81188   0.00000   0.00000  Uiso   1.00
O687   O     0.75000   0.93688   0.08020   0.00000  Uiso   1.00
O688   O     0.75000   0.81188   0.16040   0.00000  Uiso   1.00
O689   O     0.75000   0.93688   0.24060   0.00000  Uiso   1.00
O690   O     0.75000   0.81188   0.32080   0.00000  Uiso   1.00
Ti691  Ti    0.83333   0.81188   0.03139   0.00000  Uiso   1.00
Ti692  Ti    0.83333   0.93688   0.11159   0.00000  Uiso   1.00
Ti693  Ti    0.83333   0.81188   0.19179   0.00000  Uiso   1.00
Ti694  Ti    0.83333   0.93688   0.27198   0.00000  Uiso   1.00
Ti695  Ti    0.83333   0.81188   0.35218   0.00000  Uiso   1.00
Ti696  Ti    0.91667   0.93688   0.03139   0.00000  Uiso   1.00
Ti697  Ti    0.91667   0.81188   0.11159   0.00000  Uiso   1.00
Ti698  Ti    0.91667   0.93688   0.19179   0.00000  Uiso   1.00
Ti699  Ti    0.91667   0.81188   0.27198   0.00000  Uiso   1.00
Ti700  Ti    0.91667   0.93688   0.35218   0.00000  Uiso   1.00
O701   O     0.91667   0.81188   0.06277   0.00000  Uiso   1.00
O702   O     0.91667   0.93688   0.14297   0.00000  Uiso   1.00
O703   O     0.91667   0.81188   0.22317   0.00000  Uiso   1.00
O704   O     0.91667   0.93688   0.30337   0.00000  Uiso   1.00
O705   O     0.91667   0.81188   0.38357   0.00000  Uiso   1.00
O706   O     0.83333   0.98580   0.03139   0.00000  Uiso   1.00
O707   O     0.83333   0.86080   0.11159   0.00000  Uiso   1.00
O708   O     0.83333   0.98580   0.19179   0.00000  Uiso   1.00
O709   O     0.83333   0.86080   0.27198   0.00000  Uiso   1.00
O710   O     0.83333   0.98580   0.35218   0.00000  Uiso   1.00
O711   O     0.83333   0.88796   0.03139   0.00000  Uiso   1.00
O712   O     0.83333   0.76296   0.11159   0.00000  Uiso   1.00
O713   O     0.83333   0.88796   0.19179   0.00000  Uiso   1.00
O714   O     0.83333   0.76296   0.27198   0.00000  Uiso   1.00
O715   O     0.83333   0.88796   0.35218   0.00000  Uiso   1.00
O716   O     0.91667   0.81188   0.00000   0.00000  Uiso   1.00
O717   O     0.91667   0.93688   0.08020   0.00000  Uiso   1.00
O718   O     0.91667   0.81188   0.16040   0.00000  Uiso   1.00
O719   O     0.91667   0.93688   0.24060   0.00000  Uiso   1.00
O720   O     0.91667   0.81188   0.32080   0.00000  Uiso   1.00
loop_
_geom_bond_atom_site_label_1
_geom_bond_atom_site_label_2
_geom_bond_distance
_geom_bond_site_symmetry_2
_ccdc_geom_bond_type
Ti1    O11     1.952   .     S
Ti1    O161    1.952   1_455 S
Ti1    O556    1.980   1_545 S
Ti1    O21     1.980   .     S
Ti1    O26     1.952   .     S
Ti1    O176    1.952   1_455 S
Ti2    O12     1.952   .     S
Ti2    O162    1.952   1_455 S
Ti2    O17     1.980   .     S
Ti2    O202    1.980   .     S
Ti2    O27     1.952   .     S
Ti2    O177    1.952   1_455 S
Ti3    O13     1.952   .     S
Ti3    O163    1.952   1_455 S
Ti3    O558    1.980   1_545 S
Ti3    O23     1.980   .     S
Ti3    O28     1.952   .     S
Ti3    O178    1.952   1_455 S
Ti4    O14     1.952   .     S
Ti4    O164    1.952   1_455 S
Ti4    O19     1.980   .     S
Ti4    O204    1.980   .     S
Ti4    O29     1.952   .     S
Ti4    O179    1.952   1_455 S
Ti5    O15     1.952   .     S
Ti5    O165    1.952   1_455 S
Ti5    O560    1.980   1_545 S
Ti5    O25     1.980   .     S
Ti5    O30     1.952   .     S
Ti5    O180    1.952   1_455 S
Ti6    O16     1.952   .     S
Ti6    O46     1.952   .     S
Ti6    O21     1.952   .     S
Ti6    O51     1.952   .     S
Ti6    O27     1.980   .     S
Ti7    O11     1.980   .     S
Ti7    O17     1.952   .     S
Ti7    O47     1.952   .     S
Ti7    O22     1.952   .     S
Ti7    O52     1.952   .     S
Ti7    O28     1.980   .     S
Ti8    O12     1.980   .     S
Ti8    O18     1.952   .     S
Ti8    O48     1.952   .     S
Ti8    O23     1.952   .     S
Ti8    O53     1.952   .     S
Ti8    O29     1.980   .     S
Ti9    O13     1.980   .     S
Ti9    O19     1.952   .     S
Ti9    O49     1.952   .     S
Ti9    O24     1.952   .     S
Ti9    O54     1.952   .     S
Ti9    O30     1.980   .     S
Ti10   O14     1.980   .     S
Ti10   O20     1.952   .     S
Ti10   O50     1.952   .     S
Ti10   O25     1.952   .     S
Ti10   O55     1.952   .     S
O11    Ti31    1.952   .     S
O12    Ti32    1.952   .     S
O13    Ti33    1.952   .     S
O14    Ti34    1.952   .     S
O15    Ti35    1.952   .     S
O16    Ti181   1.980   .     S
O16    Ti156   1.952   1_455 S
O17    Ti157   1.952   1_455 S
O18    Ti183   1.980   .     S
O18    Ti158   1.952   1_455 S
O19    Ti159   1.952   1_455 S
O20    Ti185   1.980   .     S
O20    Ti160   1.952   1_455 S
O21    Ti156   1.952   1_455 S
O22    Ti542   1.980   1_545 S
O22    Ti157   1.952   1_455 S
O23    Ti158   1.952   1_455 S
O24    Ti544   1.980   1_545 S
O24    Ti159   1.952   1_455 S
O25    Ti160   1.952   1_455 S
O26    Ti31    1.952   .     S
O27    Ti32    1.952   .     S
O28    Ti33    1.952   .     S
O29    Ti34    1.952   .     S
O30    Ti35    1.952   .     S
Ti31   O41     1.952   .     S
Ti31   O586    1.980   1_545 S
Ti31   O51     1.980   .     S
Ti31   O56     1.952   .     S
Ti32   O42     1.952   .     S
Ti32   O47     1.980   .     S
Ti32   O232    1.980   .     S
Ti32   O57     1.952   .     S
Ti33   O43     1.952   .     S
Ti33   O588    1.980   1_545 S
Ti33   O53     1.980   .     S
Ti33   O58     1.952   .     S
Ti34   O44     1.952   .     S
Ti34   O49     1.980   .     S
Ti34   O234    1.980   .     S
Ti34   O59     1.952   .     S
Ti35   O45     1.952   .     S
Ti35   O590    1.980   1_545 S
Ti35   O55     1.980   .     S
Ti35   O60     1.952   .     S
Ti36   O46     1.952   .     S
Ti36   O76     1.952   .     S
Ti36   O51     1.952   .     S
Ti36   O81     1.952   .     S
Ti36   O57     1.980   .     S
Ti37   O41     1.980   .     S
Ti37   O47     1.952   .     S
Ti37   O77     1.952   .     S
Ti37   O52     1.952   .     S
Ti37   O82     1.952   .     S
Ti37   O58     1.980   .     S
Ti38   O42     1.980   .     S
Ti38   O48     1.952   .     S
Ti38   O78     1.952   .     S
Ti38   O53     1.952   .     S
Ti38   O83     1.952   .     S
Ti38   O59     1.980   .     S
Ti39   O43     1.980   .     S
Ti39   O49     1.952   .     S
Ti39   O79     1.952   .     S
Ti39   O54     1.952   .     S
Ti39   O84     1.952   .     S
Ti39   O60     1.980   .     S
Ti40   O44     1.980   .     S
Ti40   O50     1.952   .     S
Ti40   O80     1.952   .     S
Ti40   O55     1.952   .     S
Ti40   O85     1.952   .     S
O41    Ti61    1.952   .     S
O42    Ti62    1.952   .     S
O43    Ti63    1.952   .     S
O44    Ti64    1.952   .     S
O45    Ti65    1.952   .     S
O46    Ti211   1.980   .     S
O48    Ti213   1.980   .     S
O50    Ti215   1.980   .     S
O52    Ti572   1.980   1_545 S
O54    Ti574   1.980   1_545 S
O56    Ti61    1.952   .     S
O57    Ti62    1.952   .     S
O58    Ti63    1.952   .     S
O59    Ti64    1.952   .     S
O60    Ti65    1.952   .     S
Ti61   O71     1.952   .     S
Ti61   O616    1.980   1_545 S
Ti61   O81     1.980   .     S
Ti61   O86     1.952   .     S
Ti62   O72     1.952   .     S
Ti62   O77     1.980   .     S
Ti62   O262    1.980   .     S
Ti62   O87     1.952   .     S
Ti63   O73     1.952   .     S
Ti63   O618    1.980   1_545 S
Ti63   O83     1.980   .     S
Ti63   O88     1.952   .     S
Ti64   O74     1.952   .     S
Ti64   O79     1.980   .     S
Ti64   O264    1.980   .     S
Ti64   O89     1.952   .     S
Ti65   O75     1.952   .     S
Ti65   O620    1.980   1_545 S
Ti65   O85     1.980   .     S
Ti65   O90     1.952   .     S
Ti66   O76     1.952   .     S
Ti66   O106    1.952   .     S
Ti66   O81     1.952   .     S
Ti66   O111    1.952   .     S
Ti66   O87     1.980   .     S
Ti67   O71     1.980   .     S
Ti67   O77     1.952   .     S
Ti67   O107    1.952   .     S
Ti67   O82     1.952   .     S
Ti67   O112    1.952   .     S
Ti67   O88     1.980   .     S
Ti68   O72     1.980   .     S
Ti68   O78     1.952   .     S
Ti68   O108    1.952   .     S
Ti68   O83     1.952   .     S
Ti68   O113    1.952   .     S
Ti68   O89     1.980   .     S
Ti69   O73     1.980   .     S
Ti69   O79     1.952   .     S
Ti69   O109    1.952   .     S
Ti69   O84     1.952   .     S
Ti69   O114    1.952   .     S
Ti69   O90     1.980   .     S
Ti70   O74     1.980   .     S
Ti70   O80     1.952   .     S
Ti70   O110    1.952   .     S
Ti70   O85     1.952   .     S
Ti70   O115    1.952   .     S
O71    Ti91    1.952   .     S
O72    Ti92    1.952   .     S
O73    Ti93    1.952   .     S
O74    Ti94    1.952   .     S
O75    Ti95    1.952   .     S
O76    Ti241   1.980   .     S
O78    Ti243   1.980   .     S
O80    Ti245   1.980   .     S
O82    Ti602   1.980   1_545 S
O84    Ti604   1.980   1_545 S
O86    Ti91    1.952   .     S
O87    Ti92    1.952   .     S
O88    Ti93    1.952   .     S
O89    Ti94    1.952   .     S
O90    Ti95    1.952   .     S
Ti91   O101    1.952   .     S
Ti91   O646    1.980   1_545 S
Ti91   O111    1.980   .     S
Ti91   O116    1.952   .     S
Ti92   O102    1.952   .     S
Ti92   O107    1.980   .     S
Ti92   O292    1.980   .     S
Ti92   O117    1.952   .     S
Ti93   O103    1.952   .     S
Ti93   O648    1.980   1_545 S
Ti93   O113    1.980   .     S
Ti93   O118    1.952   .     S
Ti94   O104    1.952   .     S
Ti94   O109    1.980   .     S
Ti94   O294    1.980   .     S
Ti94   O119    1.952   .     S
Ti95   O105    1.952   .     S
Ti95   O650    1.980   1_545 S
Ti95   O115    1.980   .     S
Ti95   O120    1.952   .     S
Ti96   O106    1.952   .     S
Ti96   O136    1.952   .     S
Ti96   O111    1.952   .     S
Ti96   O141    1.952   .     S
Ti96   O117    1.980   .     S
Ti97   O101    1.980   .     S
Ti97   O107    1.952   .     S
Ti97   O137    1.952   .     S
Ti97   O112    1.952   .     S
Ti97   O142    1.952   .     S
Ti97   O118    1.980   .     S
Ti98   O102    1.980   .     S
Ti98   O108    1.952   .     S
Ti98   O138    1.952   .     S
Ti98   O113    1.952   .     S
Ti98   O143    1.952   .     S
Ti98   O119    1.980   .     S
Ti99   O103    1.980   .     S
Ti99   O109    1.952   .     S
Ti99   O139    1.952   .     S
Ti99   O114    1.952   .     S
Ti99   O144    1.952   .     S
Ti99   O120    1.980   .     S
Ti100  O104    1.980   .     S
Ti100  O110    1.952   .     S
Ti100  O140    1.952   .     S
Ti100  O115    1.952   .     S
Ti100  O145    1.952   .     S
O101   Ti121   1.952   .     S
O102   Ti122   1.952   .     S
O103   Ti123   1.952   .     S
O104   Ti124   1.952   .     S
O105   Ti125   1.952   .     S
O106   Ti271   1.980   .     S
O108   Ti273   1.980   .     S
O110   Ti275   1.980   .     S
O112   Ti632   1.980   1_545 S
O114   Ti634   1.980   1_545 S
O116   Ti121   1.952   .     S
O117   Ti122   1.952   .     S
O118   Ti123   1.952   .     S
O119   Ti124   1.952   .     S
O120   Ti125   1.952   .     S
Ti121  O131    1.952   .     S
Ti121  O676    1.980   1_545 S
Ti121  O141    1.980   .     S
Ti121  O146    1.952   .     S
Ti122  O132    1.952   .     S
Ti122  O137    1.980   .     S
Ti122  O322    1.980   .     S
Ti122  O147    1.952   .     S
Ti123  O133    1.952   .     S
Ti123  O678    1.980   1_545 S
Ti123  O143    1.980   .     S
Ti123  O148    1.952   .     S
Ti124  O134    1.952   .     S
Ti124  O139    1.980   .     S
Ti124  O324    1.980   .     S
Ti124  O149    1.952   .     S
Ti125  O135    1.952   .     S
Ti125  O680    1.980   1_545 S
Ti125  O145    1.980   .     S
Ti125  O150    1.952   .     S
Ti126  O136    1.952   .     S
Ti126  O166    1.952   .     S
Ti126  O141    1.952   .     S
Ti126  O171    1.952   .     S
Ti126  O147    1.980   .     S
Ti127  O131    1.980   .     S
Ti127  O137    1.952   .     S
Ti127  O167    1.952   .     S
Ti127  O142    1.952   .     S
Ti127  O172    1.952   .     S
Ti127  O148    1.980   .     S
Ti128  O132    1.980   .     S
Ti128  O138    1.952   .     S
Ti128  O168    1.952   .     S
Ti128  O143    1.952   .     S
Ti128  O173    1.952   .     S
Ti128  O149    1.980   .     S
Ti129  O133    1.980   .     S
Ti129  O139    1.952   .     S
Ti129  O169    1.952   .     S
Ti129  O144    1.952   .     S
Ti129  O174    1.952   .     S
Ti129  O150    1.980   .     S
Ti130  O134    1.980   .     S
Ti130  O140    1.952   .     S
Ti130  O170    1.952   .     S
Ti130  O145    1.952   .     S
Ti130  O175    1.952   .     S
O131   Ti151   1.952   .     S
O132   Ti152   1.952   .     S
O133   Ti153   1.952   .     S
O134   Ti154   1.952   .     S
O135   Ti155   1.952   .     S
O136   Ti301   1.980   .     S
O138   Ti303   1.980   .     S
O140   Ti305   1.980   .     S
O142   Ti662   1.980   1_545 S
O144   Ti664   1.980   1_545 S
O146   Ti151   1.952   .     S
O147   Ti152   1.952   .     S
O148   Ti153   1.952   .     S
O149   Ti154   1.952   .     S
O150   Ti155   1.952   .     S
Ti151  O161    1.952   .     S
Ti151  O706    1.980   1_545 S
Ti151  O171    1.980   .     S
Ti151  O176    1.952   .     S
Ti152  O162    1.952   .     S
Ti152  O167    1.980   .     S
Ti152  O352    1.980   .     S
Ti152  O177    1.952   .     S
Ti153  O163    1.952   .     S
Ti153  O708    1.980   1_545 S
Ti153  O173    1.980   .     S
Ti153  O178    1.952   .     S
Ti154  O164    1.952   .     S
Ti154  O169    1.980   .     S
Ti154  O354    1.980   .     S
Ti154  O179    1.952   .     S
Ti155  O165    1.952   .     S
Ti155  O710    1.980   1_545 S
Ti155  O175    1.980   .     S
Ti155  O180    1.952   .     S
Ti156  O166    1.952   .     S
Ti156  O16     1.952   1_655 S
Ti156  O171    1.952   .     S
Ti156  O21     1.952   1_655 S
Ti156  O177    1.980   .     S
Ti157  O161    1.980   .     S
Ti157  O167    1.952   .     S
Ti157  O17     1.952   1_655 S
Ti157  O172    1.952   .     S
Ti157  O22     1.952   1_655 S
Ti157  O178    1.980   .     S
Ti158  O162    1.980   .     S
Ti158  O168    1.952   .     S
Ti158  O18     1.952   1_655 S
Ti158  O173    1.952   .     S
Ti158  O23     1.952   1_655 S
Ti158  O179    1.980   .     S
Ti159  O163    1.980   .     S
Ti159  O169    1.952   .     S
Ti159  O19     1.952   1_655 S
Ti159  O174    1.952   .     S
Ti159  O24     1.952   1_655 S
Ti159  O180    1.980   .     S
Ti160  O164    1.980   .     S
Ti160  O170    1.952   .     S
Ti160  O20     1.952   1_655 S
Ti160  O175    1.952   .     S
Ti160  O25     1.952   1_655 S
O161   Ti1     1.952   1_655 S
O162   Ti2     1.952   1_655 S
O163   Ti3     1.952   1_655 S
O164   Ti4     1.952   1_655 S
O165   Ti5     1.952   1_655 S
O166   Ti331   1.980   .     S
O168   Ti333   1.980   .     S
O170   Ti335   1.980   .     S
O172   Ti692   1.980   1_545 S
O174   Ti694   1.980   1_545 S
O176   Ti1     1.952   1_655 S
O177   Ti2     1.952   1_655 S
O178   Ti3     1.952   1_655 S
O179   Ti4     1.952   1_655 S
O180   Ti5     1.952   1_655 S
Ti181  O191    1.952   .     S
Ti181  O341    1.952   1_455 S
Ti181  O201    1.980   .     S
Ti181  O206    1.952   .     S
Ti181  O356    1.952   1_455 S
Ti182  O192    1.952   .     S
Ti182  O342    1.952   1_455 S
Ti182  O197    1.980   .     S
Ti182  O382    1.980   .     S
Ti182  O207    1.952   .     S
Ti182  O357    1.952   1_455 S
Ti183  O193    1.952   .     S
Ti183  O343    1.952   1_455 S
Ti183  O203    1.980   .     S
Ti183  O208    1.952   .     S
Ti183  O358    1.952   1_455 S
Ti184  O194    1.952   .     S
Ti184  O344    1.952   1_455 S
Ti184  O199    1.980   .     S
Ti184  O384    1.980   .     S
Ti184  O209    1.952   .     S
Ti184  O359    1.952   1_455 S
Ti185  O195    1.952   .     S
Ti185  O345    1.952   1_455 S
Ti185  O205    1.980   .     S
Ti185  O210    1.952   .     S
Ti185  O360    1.952   1_455 S
Ti186  O196    1.952   .     S
Ti186  O226    1.952   .     S
Ti186  O201    1.952   .     S
Ti186  O231    1.952   .     S
Ti186  O207    1.980   .     S
Ti187  O191    1.980   .     S
Ti187  O197    1.952   .     S
Ti187  O227    1.952   .     S
Ti187  O202    1.952   .     S
Ti187  O232    1.952   .     S
Ti187  O208    1.980   .     S
Ti188  O192    1.980   .     S
Ti188  O198    1.952   .     S
Ti188  O228    1.952   .     S
Ti188  O203    1.952   .     S
Ti188  O233    1.952   .     S
Ti188  O209    1.980   .     S
Ti189  O193    1.980   .     S
Ti189  O199    1.952   .     S
Ti189  O229    1.952   .     S
Ti189  O204    1.952   .     S
Ti189  O234    1.952   .     S
Ti189  O210    1.980   .     S
Ti190  O194    1.980   .     S
Ti190  O200    1.952   .     S
Ti190  O230    1.952   .     S
Ti190  O205    1.952   .     S
Ti190  O235    1.952   .     S
O191   Ti211   1.952   .     S
O192   Ti212   1.952   .     S
O193   Ti213   1.952   .     S
O194   Ti214   1.952   .     S
O195   Ti215   1.952   .     S
O196   Ti361   1.980   .     S
O196   Ti336   1.952   1_455 S
O197   Ti337   1.952   1_455 S
O198   Ti363   1.980   .     S
O198   Ti338   1.952   1_455 S
O199   Ti339   1.952   1_455 S
O200   Ti365   1.980   .     S
O200   Ti340   1.952   1_455 S
O201   Ti336   1.952   1_455 S
O202   Ti337   1.952   1_455 S
O203   Ti338   1.952   1_455 S
O204   Ti339   1.952   1_455 S
O205   Ti340   1.952   1_455 S
O206   Ti211   1.952   .     S
O207   Ti212   1.952   .     S
O208   Ti213   1.952   .     S
O209   Ti214   1.952   .     S
O210   Ti215   1.952   .     S
Ti211  O221    1.952   .     S
Ti211  O231    1.980   .     S
Ti211  O236    1.952   .     S
Ti212  O222    1.952   .     S
Ti212  O227    1.980   .     S
Ti212  O412    1.980   .     S
Ti212  O237    1.952   .     S
Ti213  O223    1.952   .     S
Ti213  O233    1.980   .     S
Ti213  O238    1.952   .     S
Ti214  O224    1.952   .     S
Ti214  O229    1.980   .     S
Ti214  O414    1.980   .     S
Ti214  O239    1.952   .     S
Ti215  O225    1.952   .     S
Ti215  O235    1.980   .     S
Ti215  O240    1.952   .     S
Ti216  O226    1.952   .     S
Ti216  O256    1.952   .     S
Ti216  O231    1.952   .     S
Ti216  O261    1.952   .     S
Ti216  O237    1.980   .     S
Ti217  O221    1.980   .     S
Ti217  O227    1.952   .     S
Ti217  O257    1.952   .     S
Ti217  O232    1.952   .     S
Ti217  O262    1.952   .     S
Ti217  O238    1.980   .     S
Ti218  O222    1.980   .     S
Ti218  O228    1.952   .     S
Ti218  O258    1.952   .     S
Ti218  O233    1.952   .     S
Ti218  O263    1.952   .     S
Ti218  O239    1.980   .     S
Ti219  O223    1.980   .     S
Ti219  O229    1.952   .     S
Ti219  O259    1.952   .     S
Ti219  O234    1.952   .     S
Ti219  O264    1.952   .     S
Ti219  O240    1.980   .     S
Ti220  O224    1.980   .     S
Ti220  O230    1.952   .     S
Ti220  O260    1.952   .     S
Ti220  O235    1.952   .     S
Ti220  O265    1.952   .     S
O221   Ti241   1.952   .     S
O222   Ti242   1.952   .     S
O223   Ti243   1.952   .     S
O224   Ti244   1.952   .     S
O225   Ti245   1.952   .     S
O226   Ti391   1.980   .     S
O228   Ti393   1.980   .     S
O230   Ti395   1.980   .     S
O236   Ti241   1.952   .     S
O237   Ti242   1.952   .     S
O238   Ti243   1.952   .     S
O239   Ti244   1.952   .     S
O240   Ti245   1.952   .     S
Ti241  O251    1.952   .     S
Ti241  O261    1.980   .     S
Ti241  O266    1.952   .     S
Ti242  O252    1.952   .     S
Ti242  O257    1.980   .     S
Ti242  O442    1.980   .     S
Ti242  O267    1.952   .     S
Ti243  O253    1.952   .     S
Ti243  O263    1.980   .     S
Ti243  O268    1.952   .     S
Ti244  O254    1.952   .     S
Ti244  O259    1.980   .     S
Ti244  O444    1.980   .     S
Ti244  O269    1.952   .     S
Ti245  O255    1.952   .     S
Ti245  O265    1.980   .     S
Ti245  O270    1.952   .     S
Ti246  O256    1.952   .     S
Ti246  O286    1.952   .     S
Ti246  O261    1.952   .     S
Ti246  O291    1.952   .     S
Ti246  O267    1.980   .     S
Ti247  O251    1.980   .     S
Ti247  O257    1.952   .     S
Ti247  O287    1.952   .     S
Ti247  O262    1.952   .     S
Ti247  O292    1.952   .     S
Ti247  O268    1.980   .     S
Ti248  O252    1.980   .     S
Ti248  O258    1.952   .     S
Ti248  O288    1.952   .     S
Ti248  O263    1.952   .     S
Ti248  O293    1.952   .     S
Ti248  O269    1.980   .     S
Ti249  O253    1.980   .     S
Ti249  O259    1.952   .     S
Ti249  O289    1.952   .     S
Ti249  O264    1.952   .     S
Ti249  O294    1.952   .     S
Ti249  O270    1.980   .     S
Ti250  O254    1.980   .     S
Ti250  O260    1.952   .     S
Ti250  O290    1.952   .     S
Ti250  O265    1.952   .     S
Ti250  O295    1.952   .     S
O251   Ti271   1.952   .     S
O252   Ti272   1.952   .     S
O253   Ti273   1.952   .     S
O254   Ti274   1.952   .     S
O255   Ti275   1.952   .     S
O256   Ti421   1.980   .     S
O258   Ti423   1.980   .     S
O260   Ti425   1.980   .     S
O266   Ti271   1.952   .     S
O267   Ti272   1.952   .     S
O268   Ti273   1.952   .     S
O269   Ti274   1.952   .     S
O270   Ti275   1.952   .     S
Ti271  O281    1.952   .     S
Ti271  O291    1.980   .     S
Ti271  O296    1.952   .     S
Ti272  O282    1.952   .     S
Ti272  O287    1.980   .     S
Ti272  O472    1.980   .     S
Ti272  O297    1.952   .     S
Ti273  O283    1.952   .     S
Ti273  O293    1.980   .     S
Ti273  O298    1.952   .     S
Ti274  O284    1.952   .     S
Ti274  O289    1.980   .     S
Ti274  O474    1.980   .     S
Ti274  O299    1.952   .     S
Ti275  O285    1.952   .     S
Ti275  O295    1.980   .     S
Ti275  O300    1.952   .     S
Ti276  O286    1.952   .     S
Ti276  O316    1.952   .     S
Ti276  O291    1.952   .     S
Ti276  O321    1.952   .     S
Ti276  O297    1.980   .     S
Ti277  O281    1.980   .     S
Ti277  O287    1.952   .     S
Ti277  O317    1.952   .     S
Ti277  O292    1.952   .     S
Ti277  O322    1.952   .     S
Ti277  O298    1.980   .     S
Ti278  O282    1.980   .     S
Ti278  O288    1.952   .     S
Ti278  O318    1.952   .     S
Ti278  O293    1.952   .     S
Ti278  O323    1.952   .     S
Ti278  O299    1.980   .     S
Ti279  O283    1.980   .     S
Ti279  O289    1.952   .     S
Ti279  O319    1.952   .     S
Ti279  O294    1.952   .     S
Ti279  O324    1.952   .     S
Ti279  O300    1.980   .     S
Ti280  O284    1.980   .     S
Ti280  O290    1.952   .     S
Ti280  O320    1.952   .     S
Ti280  O295    1.952   .     S
Ti280  O325    1.952   .     S
O281   Ti301   1.952   .     S
O282   Ti302   1.952   .     S
O283   Ti303   1.952   .     S
O284   Ti304   1.952   .     S
O285   Ti305   1.952   .     S
O286   Ti451   1.980   .     S
O288   Ti453   1.980   .     S
O290   Ti455   1.980   .     S
O296   Ti301   1.952   .     S
O297   Ti302   1.952   .     S
O298   Ti303   1.952   .     S
O299   Ti304   1.952   .     S
O300   Ti305   1.952   .     S
Ti301  O311    1.952   .     S
Ti301  O321    1.980   .     S
Ti301  O326    1.952   .     S
Ti302  O312    1.952   .     S
Ti302  O317    1.980   .     S
Ti302  O502    1.980   .     S
Ti302  O327    1.952   .     S
Ti303  O313    1.952   .     S
Ti303  O323    1.980   .     S
Ti303  O328    1.952   .     S
Ti304  O314    1.952   .     S
Ti304  O319    1.980   .     S
Ti304  O504    1.980   .     S
Ti304  O329    1.952   .     S
Ti305  O315    1.952   .     S
Ti305  O325    1.980   .     S
Ti305  O330    1.952   .     S
Ti306  O316    1.952   .     S
Ti306  O346    1.952   .     S
Ti306  O321    1.952   .     S
Ti306  O351    1.952   .     S
Ti306  O327    1.980   .     S
Ti307  O311    1.980   .     S
Ti307  O317    1.952   .     S
Ti307  O347    1.952   .     S
Ti307  O322    1.952   .     S
Ti307  O352    1.952   .     S
Ti307  O328    1.980   .     S
Ti308  O312    1.980   .     S
Ti308  O318    1.952   .     S
Ti308  O348    1.952   .     S
Ti308  O323    1.952   .     S
Ti308  O353    1.952   .     S
Ti308  O329    1.980   .     S
Ti309  O313    1.980   .     S
Ti309  O319    1.952   .     S
Ti309  O349    1.952   .     S
Ti309  O324    1.952   .     S
Ti309  O354    1.952   .     S
Ti309  O330    1.980   .     S
Ti310  O314    1.980   .     S
Ti310  O320    1.952   .     S
Ti310  O350    1.952   .     S
Ti310  O325    1.952   .     S
Ti310  O355    1.952   .     S
O311   Ti331   1.952   .     S
O312   Ti332   1.952   .     S
O313   Ti333   1.952   .     S
O314   Ti334   1.952   .     S
O315   Ti335   1.952   .     S
O316   Ti481   1.980   .     S
O318   Ti483   1.980   .     S
O320   Ti485   1.980   .     S
O326   Ti331   1.952   .     S
O327   Ti332   1.952   .     S
O328   Ti333   1.952   .     S
O329   Ti334   1.952   .     S
O330   Ti335   1.952   .     S
Ti331  O341    1.952   .     S
Ti331  O351    1.980   .     S
Ti331  O356    1.952   .     S
Ti332  O342    1.952   .     S
Ti332  O347    1.980   .     S
Ti332  O532    1.980   .     S
Ti332  O357    1.952   .     S
Ti333  O343    1.952   .     S
Ti333  O353    1.980   .     S
Ti333  O358    1.952   .     S
Ti334  O344    1.952   .     S
Ti334  O349    1.980   .     S
Ti334  O534    1.980   .     S
Ti334  O359    1.952   .     S
Ti335  O345    1.952   .     S
Ti335  O355    1.980   .     S
Ti335  O360    1.952   .     S
Ti336  O346    1.952   .     S
Ti336  O196    1.952   1_655 S
Ti336  O351    1.952   .     S
Ti336  O201    1.952   1_655 S
Ti336  O357    1.980   .     S
Ti337  O341    1.980   .     S
Ti337  O347    1.952   .     S
Ti337  O197    1.952   1_655 S
Ti337  O352    1.952   .     S
Ti337  O202    1.952   1_655 S
Ti337  O358    1.980   .     S
Ti338  O342    1.980   .     S
Ti338  O348    1.952   .     S
Ti338  O198    1.952   1_655 S
Ti338  O353    1.952   .     S
Ti338  O203    1.952   1_655 S
Ti338  O359    1.980   .     S
Ti339  O343    1.980   .     S
Ti339  O349    1.952   .     S
Ti339  O199    1.952   1_655 S
Ti339  O354    1.952   .     S
Ti339  O204    1.952   1_655 S
Ti339  O360    1.980   .     S
Ti340  O344    1.980   .     S
Ti340  O350    1.952   .     S
Ti340  O200    1.952   1_655 S
Ti340  O355    1.952   .     S
Ti340  O205    1.952   1_655 S
O341   Ti181   1.952   1_655 S
O342   Ti182   1.952   1_655 S
O343   Ti183   1.952   1_655 S
O344   Ti184   1.952   1_655 S
O345   Ti185   1.952   1_655 S
O346   Ti511   1.980   .     S
O348   Ti513   1.980   .     S
O350   Ti515   1.980   .     S
O356   Ti181   1.952   1_655 S
O357   Ti182   1.952   1_655 S
O358   Ti183   1.952   1_655 S
O359   Ti184   1.952   1_655 S
O360   Ti185   1.952   1_655 S
Ti361  O371    1.952   .     S
Ti361  O521    1.952   1_455 S
Ti361  O381    1.980   .     S
Ti361  O386    1.952   .     S
Ti361  O536    1.952   1_455 S
Ti362  O372    1.952   .     S
Ti362  O522    1.952   1_455 S
Ti362  O377    1.980   .     S
Ti362  O562    1.980   .     S
Ti362  O387    1.952   .     S
Ti362  O537    1.952   1_455 S
Ti363  O373    1.952   .     S
Ti363  O523    1.952   1_455 S
Ti363  O383    1.980   .     S
Ti363  O388    1.952   .     S
Ti363  O538    1.952   1_455 S
Ti364  O374    1.952   .     S
Ti364  O524    1.952   1_455 S
Ti364  O379    1.980   .     S
Ti364  O564    1.980   .     S
Ti364  O389    1.952   .     S
Ti364  O539    1.952   1_455 S
Ti365  O375    1.952   .     S
Ti365  O525    1.952   1_455 S
Ti365  O385    1.980   .     S
Ti365  O390    1.952   .     S
Ti365  O540    1.952   1_455 S
Ti366  O376    1.952   .     S
Ti366  O406    1.952   .     S
Ti366  O381    1.952   .     S
Ti366  O411    1.952   .     S
Ti366  O387    1.980   .     S
Ti367  O371    1.980   .     S
Ti367  O377    1.952   .     S
Ti367  O407    1.952   .     S
Ti367  O382    1.952   .     S
Ti367  O412    1.952   .     S
Ti367  O388    1.980   .     S
Ti368  O372    1.980   .     S
Ti368  O378    1.952   .     S
Ti368  O408    1.952   .     S
Ti368  O383    1.952   .     S
Ti368  O413    1.952   .     S
Ti368  O389    1.980   .     S
Ti369  O373    1.980   .     S
Ti369  O379    1.952   .     S
Ti369  O409    1.952   .     S
Ti369  O384    1.952   .     S
Ti369  O414    1.952   .     S
Ti369  O390    1.980   .     S
Ti370  O374    1.980   .     S
Ti370  O380    1.952   .     S
Ti370  O410    1.952   .     S
Ti370  O385    1.952   .     S
Ti370  O415    1.952   .     S
O371   Ti391   1.952   .     S
O372   Ti392   1.952   .     S
O373   Ti393   1.952   .     S
O374   Ti394   1.952   .     S
O375   Ti395   1.952   .     S
O376   Ti541   1.980   .     S
O376   Ti516   1.952   1_455 S
O377   Ti517   1.952   1_455 S
O378   Ti543   1.980   .     S
O378   Ti518   1.952   1_455 S
O379   Ti519   1.952   1_455 S
O380   Ti545   1.980   .     S
O380   Ti520   1.952   1_455 S
O381   Ti516   1.952   1_455 S
O382   Ti517   1.952   1_455 S
O383   Ti518   1.952   1_455 S
O384   Ti519   1.952   1_455 S
O385   Ti520   1.952   1_455 S
O386   Ti391   1.952   .     S
O387   Ti392   1.952   .     S
O388   Ti393   1.952   .     S
O389   Ti394   1.952   .     S
O390   Ti395   1.952   .     S
Ti391  O401    1.952   .     S
Ti391  O411    1.980   .     S
Ti391  O416    1.952   .     S
Ti392  O402    1.952   .     S
Ti392  O407    1.980   .     S
Ti392  O592    1.980   .     S
Ti392  O417    1.952   .     S
Ti393  O403    1.952   .     S
Ti393  O413    1.980   .     S
Ti393  O418    1.952   .     S
Ti394  O404    1.952   .     S
Ti394  O409    1.980   .     S
Ti394  O594    1.980   .     S
Ti394  O419    1.952   .     S
Ti395  O405    1.952   .     S
Ti395  O415    1.980   .     S
Ti395  O420    1.952   .     S
Ti396  O406    1.952   .     S
Ti396  O436    1.952   .     S
Ti396  O411    1.952   .     S
Ti396  O441    1.952   .     S
Ti396  O417    1.980   .     S
Ti397  O401    1.980   .     S
Ti397  O407    1.952   .     S
Ti397  O437    1.952   .     S
Ti397  O412    1.952   .     S
Ti397  O442    1.952   .     S
Ti397  O418    1.980   .     S
Ti398  O402    1.980   .     S
Ti398  O408    1.952   .     S
Ti398  O438    1.952   .     S
Ti398  O413    1.952   .     S
Ti398  O443    1.952   .     S
Ti398  O419    1.980   .     S
Ti399  O403    1.980   .     S
Ti399  O409    1.952   .     S
Ti399  O439    1.952   .     S
Ti399  O414    1.952   .     S
Ti399  O444    1.952   .     S
Ti399  O420    1.980   .     S
Ti400  O404    1.980   .     S
Ti400  O410    1.952   .     S
Ti400  O440    1.952   .     S
Ti400  O415    1.952   .     S
Ti400  O445    1.952   .     S
O401   Ti421   1.952   .     S
O402   Ti422   1.952   .     S
O403   Ti423   1.952   .     S
O404   Ti424   1.952   .     S
O405   Ti425   1.952   .     S
O406   Ti571   1.980   .     S
O408   Ti573   1.980   .     S
O410   Ti575   1.980   .     S
O416   Ti421   1.952   .     S
O417   Ti422   1.952   .     S
O418   Ti423   1.952   .     S
O419   Ti424   1.952   .     S
O420   Ti425   1.952   .     S
Ti421  O431    1.952   .     S
Ti421  O441    1.980   .     S
Ti421  O446    1.952   .     S
Ti422  O432    1.952   .     S
Ti422  O437    1.980   .     S
Ti422  O622    1.980   .     S
Ti422  O447    1.952   .     S
Ti423  O433    1.952   .     S
Ti423  O443    1.980   .     S
Ti423  O448    1.952   .     S
Ti424  O434    1.952   .     S
Ti424  O439    1.980   .     S
Ti424  O624    1.980   .     S
Ti424  O449    1.952   .     S
Ti425  O435    1.952   .     S
Ti425  O445    1.980   .     S
Ti425  O450    1.952   .     S
Ti426  O436    1.952   .     S
Ti426  O466    1.952   .     S
Ti426  O441    1.952   .     S
Ti426  O471    1.952   .     S
Ti426  O447    1.980   .     S
Ti427  O431    1.980   .     S
Ti427  O437    1.952   .     S
Ti427  O467    1.952   .     S
Ti427  O442    1.952   .     S
Ti427  O472    1.952   .     S
Ti427  O448    1.980   .     S
Ti428  O432    1.980   .     S
Ti428  O438    1.952   .     S
Ti428  O468    1.952   .     S
Ti428  O443    1.952   .     S
Ti428  O473    1.952   .     S
Ti428  O449    1.980   .     S
Ti429  O433    1.980   .     S
Ti429  O439    1.952   .     S
Ti429  O469    1.952   .     S
Ti429  O444    1.952   .     S
Ti429  O474    1.952   .     S
Ti429  O450    1.980   .     S
Ti430  O434    1.980   .     S
Ti430  O440    1.952   .     S
Ti430  O470    1.952   .     S
Ti430  O445    1.952   .     S
Ti430  O475    1.952   .     S
O431   Ti451   1.952   .     S
O432   Ti452   1.952   .     S
O433   Ti453   1.952   .     S
O434   Ti454   1.952   .     S
O435   Ti455   1.952   .     S
O436   Ti601   1.980   .     S
O438   Ti603   1.980   .     S
O440   Ti605   1.980   .     S
O446   Ti451   1.952   .     S
O447   Ti452   1.952   .     S
O448   Ti453   1.952   .     S
O449   Ti454   1.952   .     S
O450   Ti455   1.952   .     S
Ti451  O461    1.952   .     S
Ti451  O471    1.980   .     S
Ti451  O476    1.952   .     S
Ti452  O462    1.952   .     S
Ti452  O467    1.980   .     S
Ti452  O652    1.980   .     S
Ti452  O477    1.952   .     S
Ti453  O463    1.952   .     S
Ti453  O473    1.980   .     S
Ti453  O478    1.952   .     S
Ti454  O464    1.952   .     S
Ti454  O469    1.980   .     S
Ti454  O654    1.980   .     S
Ti454  O479    1.952   .     S
Ti455  O465    1.952   .     S
Ti455  O475    1.980   .     S
Ti455  O480    1.952   .     S
Ti456  O466    1.952   .     S
Ti456  O496    1.952   .     S
Ti456  O471    1.952   .     S
Ti456  O501    1.952   .     S
Ti456  O477    1.980   .     S
Ti457  O461    1.980   .     S
Ti457  O467    1.952   .     S
Ti457  O497    1.952   .     S
Ti457  O472    1.952   .     S
Ti457  O502    1.952   .     S
Ti457  O478    1.980   .     S
Ti458  O462    1.980   .     S
Ti458  O468    1.952   .     S
Ti458  O498    1.952   .     S
Ti458  O473    1.952   .     S
Ti458  O503    1.952   .     S
Ti458  O479    1.980   .     S
Ti459  O463    1.980   .     S
Ti459  O469    1.952   .     S
Ti459  O499    1.952   .     S
Ti459  O474    1.952   .     S
Ti459  O504    1.952   .     S
Ti459  O480    1.980   .     S
Ti460  O464    1.980   .     S
Ti460  O470    1.952   .     S
Ti460  O500    1.952   .     S
Ti460  O475    1.952   .     S
Ti460  O505    1.952   .     S
O461   Ti481   1.952   .     S
O462   Ti482   1.952   .     S
O463   Ti483   1.952   .     S
O464   Ti484   1.952   .     S
O465   Ti485   1.952   .     S
O466   Ti631   1.980   .     S
O468   Ti633   1.980   .     S
O470   Ti635   1.980   .     S
O476   Ti481   1.952   .     S
O477   Ti482   1.952   .     S
O478   Ti483   1.952   .     S
O479   Ti484   1.952   .     S
O480   Ti485   1.952   .     S
Ti481  O491    1.952   .     S
Ti481  O501    1.980   .     S
Ti481  O506    1.952   .     S
Ti482  O492    1.952   .     S
Ti482  O497    1.980   .     S
Ti482  O682    1.980   .     S
Ti482  O507    1.952   .     S
Ti483  O493    1.952   .     S
Ti483  O503    1.980   .     S
Ti483  O508    1.952   .     S
Ti484  O494    1.952   .     S
Ti484  O499    1.980   .     S
Ti484  O684    1.980   .     S
Ti484  O509    1.952   .     S
Ti485  O495    1.952   .     S
Ti485  O505    1.980   .     S
Ti485  O510    1.952   .     S
Ti486  O496    1.952   .     S
Ti486  O526    1.952   .     S
Ti486  O501    1.952   .     S
Ti486  O531    1.952   .     S
Ti486  O507    1.980   .     S
Ti487  O491    1.980   .     S
Ti487  O497    1.952   .     S
Ti487  O527    1.952   .     S
Ti487  O502    1.952   .     S
Ti487  O532    1.952   .     S
Ti487  O508    1.980   .     S
Ti488  O492    1.980   .     S
Ti488  O498    1.952   .     S
Ti488  O528    1.952   .     S
Ti488  O503    1.952   .     S
Ti488  O533    1.952   .     S
Ti488  O509    1.980   .     S
Ti489  O493    1.980   .     S
Ti489  O499    1.952   .     S
Ti489  O529    1.952   .     S
Ti489  O504    1.952   .     S
Ti489  O534    1.952   .     S
Ti489  O510    1.980   .     S
Ti490  O494    1.980   .     S
Ti490  O500    1.952   .     S
Ti490  O530    1.952   .     S
Ti490  O505    1.952   .     S
Ti490  O535    1.952   .     S
O491   Ti511   1.952   .     S
O492   Ti512   1.952   .     S
O493   Ti513   1.952   .     S
O494   Ti514   1.952   .     S
O495   Ti515   1.952   .     S
O496   Ti661   1.980   .     S
O498   Ti663   1.980   .     S
O500   Ti665   1.980   .     S
O506   Ti511   1.952   .     S
O507   Ti512   1.952   .     S
O508   Ti513   1.952   .     S
O509   Ti514   1.952   .     S
O510   Ti515   1.952   .     S
Ti511  O521    1.952   .     S
Ti511  O531    1.980   .     S
Ti511  O536    1.952   .     S
Ti512  O522    1.952   .     S
Ti512  O527    1.980   .     S
Ti512  O712    1.980   .     S
Ti512  O537    1.952   .     S
Ti513  O523    1.952   .     S
Ti513  O533    1.980   .     S
Ti513  O538    1.952   .     S
Ti514  O524    1.952   .     S
Ti514  O529    1.980   .     S
Ti514  O714    1.980   .     S
Ti514  O539    1.952   .     S
Ti515  O525    1.952   .     S
Ti515  O535    1.980   .     S
Ti515  O540    1.952   .     S
Ti516  O526    1.952   .     S
Ti516  O376    1.952   1_655 S
Ti516  O531    1.952   .     S
Ti516  O381    1.952   1_655 S
Ti516  O537    1.980   .     S
Ti517  O521    1.980   .     S
Ti517  O527    1.952   .     S
Ti517  O377    1.952   1_655 S
Ti517  O532    1.952   .     S
Ti517  O382    1.952   1_655 S
Ti517  O538    1.980   .     S
Ti518  O522    1.980   .     S
Ti518  O528    1.952   .     S
Ti518  O378    1.952   1_655 S
Ti518  O533    1.952   .     S
Ti518  O383    1.952   1_655 S
Ti518  O539    1.980   .     S
Ti519  O523    1.980   .     S
Ti519  O529    1.952   .     S
Ti519  O379    1.952   1_655 S
Ti519  O534    1.952   .     S
Ti519  O384    1.952   1_655 S
Ti519  O540    1.980   .     S
Ti520  O524    1.980   .     S
Ti520  O530    1.952   .     S
Ti520  O380    1.952   1_655 S
Ti520  O535    1.952   .     S
Ti520  O385    1.952   1_655 S
O521   Ti361   1.952   1_655 S
O522   Ti362   1.952   1_655 S
O523   Ti363   1.952   1_655 S
O524   Ti364   1.952   1_655 S
O525   Ti365   1.952   1_655 S
O526   Ti691   1.980   .     S
O528   Ti693   1.980   .     S
O530   Ti695   1.980   .     S
O536   Ti361   1.952   1_655 S
O537   Ti362   1.952   1_655 S
O538   Ti363   1.952   1_655 S
O539   Ti364   1.952   1_655 S
O540   Ti365   1.952   1_655 S
Ti541  O551    1.952   .     S
Ti541  O701    1.952   1_455 S
Ti541  O561    1.980   .     S
Ti541  O566    1.952   .     S
Ti541  O716    1.952   1_455 S
Ti542  O552    1.952   .     S
Ti542  O702    1.952   1_455 S
Ti542  O557    1.980   .     S
Ti542  O22     1.980   1_565 S
Ti542  O567    1.952   .     S
Ti542  O717    1.952   1_455 S
Ti543  O553    1.952   .     S
Ti543  O703    1.952   1_455 S
Ti543  O563    1.980   .     S
Ti543  O568    1.952   .     S
Ti543  O718    1.952   1_455 S
Ti544  O554    1.952   .     S
Ti544  O704    1.952   1_455 S
Ti544  O559    1.980   .     S
Ti544  O24     1.980   1_565 S
Ti544  O569    1.952   .     S
Ti544  O719    1.952   1_455 S
Ti545  O555    1.952   .     S
Ti545  O705    1.952   1_455 S
Ti545  O565    1.980   .     S
Ti545  O570    1.952   .     S
Ti545  O720    1.952   1_455 S
Ti546  O556    1.952   .     S
Ti546  O586    1.952   .     S
Ti546  O561    1.952   .     S
Ti546  O591    1.952   .     S
Ti546  O567    1.980   .     S
Ti547  O551    1.980   .     S
Ti547  O557    1.952   .     S
Ti547  O587    1.952   .     S
Ti547  O562    1.952   .     S
Ti547  O592    1.952   .     S
Ti547  O568    1.980   .     S
Ti548  O552    1.980   .     S
Ti548  O558    1.952   .     S
Ti548  O588    1.952   .     S
Ti548  O563    1.952   .     S
Ti548  O593    1.952   .     S
Ti548  O569    1.980   .     S
Ti549  O553    1.980   .     S
Ti549  O559    1.952   .     S
Ti549  O589    1.952   .     S
Ti549  O564    1.952   .     S
Ti549  O594    1.952   .     S
Ti549  O570    1.980   .     S
Ti550  O554    1.980   .     S
Ti550  O560    1.952   .     S
Ti550  O590    1.952   .     S
Ti550  O565    1.952   .     S
Ti550  O595    1.952   .     S
O551   Ti571   1.952   .     S
O552   Ti572   1.952   .     S
O553   Ti573   1.952   .     S
O554   Ti574   1.952   .     S
O555   Ti575   1.952   .     S
O556   Ti1     1.980   1_565 S
O556   Ti696   1.952   1_455 S
O557   Ti697   1.952   1_455 S
O558   Ti3     1.980   1_565 S
O558   Ti698   1.952   1_455 S
O559   Ti699   1.952   1_455 S
O560   Ti5     1.980   1_565 S
O560   Ti700   1.952   1_455 S
O561   Ti696   1.952   1_455 S
O562   Ti697   1.952   1_455 S
O563   Ti698   1.952   1_455 S
O564   Ti699   1.952   1_455 S
O565   Ti700   1.952   1_455 S
O566   Ti571   1.952   .     S
O567   Ti572   1.952   .     S
O568   Ti573   1.952   .     S
O569   Ti574   1.952   .     S
O570   Ti575   1.952   .     S
Ti571  O581    1.952   .     S
Ti571  O591    1.980   .     S
Ti571  O596    1.952   .     S
Ti572  O582    1.952   .     S
Ti572  O587    1.980   .     S
Ti572  O52     1.980   1_565 S
Ti572  O597    1.952   .     S
Ti573  O583    1.952   .     S
Ti573  O593    1.980   .     S
Ti573  O598    1.952   .     S
Ti574  O584    1.952   .     S
Ti574  O589    1.980   .     S
Ti574  O54     1.980   1_565 S
Ti574  O599    1.952   .     S
Ti575  O585    1.952   .     S
Ti575  O595    1.980   .     S
Ti575  O600    1.952   .     S
Ti576  O586    1.952   .     S
Ti576  O616    1.952   .     S
Ti576  O591    1.952   .     S
Ti576  O621    1.952   .     S
Ti576  O597    1.980   .     S
Ti577  O581    1.980   .     S
Ti577  O587    1.952   .     S
Ti577  O617    1.952   .     S
Ti577  O592    1.952   .     S
Ti577  O622    1.952   .     S
Ti577  O598    1.980   .     S
Ti578  O582    1.980   .     S
Ti578  O588    1.952   .     S
Ti578  O618    1.952   .     S
Ti578  O593    1.952   .     S
Ti578  O623    1.952   .     S
Ti578  O599    1.980   .     S
Ti579  O583    1.980   .     S
Ti579  O589    1.952   .     S
Ti579  O619    1.952   .     S
Ti579  O594    1.952   .     S
Ti579  O624    1.952   .     S
Ti579  O600    1.980   .     S
Ti580  O584    1.980   .     S
Ti580  O590    1.952   .     S
Ti580  O620    1.952   .     S
Ti580  O595    1.952   .     S
Ti580  O625    1.952   .     S
O581   Ti601   1.952   .     S
O582   Ti602   1.952   .     S
O583   Ti603   1.952   .     S
O584   Ti604   1.952   .     S
O585   Ti605   1.952   .     S
O586   Ti31    1.980   1_565 S
O588   Ti33    1.980   1_565 S
O590   Ti35    1.980   1_565 S
O596   Ti601   1.952   .     S
O597   Ti602   1.952   .     S
O598   Ti603   1.952   .     S
O599   Ti604   1.952   .     S
O600   Ti605   1.952   .     S
Ti601  O611    1.952   .     S
Ti601  O621    1.980   .     S
Ti601  O626    1.952   .     S
Ti602  O612    1.952   .     S
Ti602  O617    1.980   .     S
Ti602  O82     1.980   1_565 S
Ti602  O627    1.952   .     S
Ti603  O613    1.952   .     S
Ti603  O623    1.980   .     S
Ti603  O628    1.952   .     S
Ti604  O614    1.952   .     S
Ti604  O619    1.980   .     S
Ti604  O84     1.980   1_565 S
Ti604  O629    1.952   .     S
Ti605  O615    1.952   .     S
Ti605  O625    1.980   .     S
Ti605  O630    1.952   .     S
Ti606  O616    1.952   .     S
Ti606  O646    1.952   .     S
Ti606  O621    1.952   .     S
Ti606  O651    1.952   .     S
Ti606  O627    1.980   .     S
Ti607  O611    1.980   .     S
Ti607  O617    1.952   .     S
Ti607  O647    1.952   .     S
Ti607  O622    1.952   .     S
Ti607  O652    1.952   .     S
Ti607  O628    1.980   .     S
Ti608  O612    1.980   .     S
Ti608  O618    1.952   .     S
Ti608  O648    1.952   .     S
Ti608  O623    1.952   .     S
Ti608  O653    1.952   .     S
Ti608  O629    1.980   .     S
Ti609  O613    1.980   .     S
Ti609  O619    1.952   .     S
Ti609  O649    1.952   .     S
Ti609  O624    1.952   .     S
Ti609  O654    1.952   .     S
Ti609  O630    1.980   .     S
Ti610  O614    1.980   .     S
Ti610  O620    1.952   .     S
Ti610  O650    1.952   .     S
Ti610  O625    1.952   .     S
Ti610  O655    1.952   .     S
O611   Ti631   1.952   .     S
O612   Ti632   1.952   .     S
O613   Ti633   1.952   .     S
O614   Ti634   1.952   .     S
O615   Ti635   1.952   .     S
O616   Ti61    1.980   1_565 S
O618   Ti63    1.980   1_565 S
O620   Ti65    1.980   1_565 S
O626   Ti631   1.952   .     S
O627   Ti632   1.952   .     S
O628   Ti633   1.952   .     S
O629   Ti634   1.952   .     S
O630   Ti635   1.952   .     S
Ti631  O641    1.952   .     S
Ti631  O651    1.980   .     S
Ti631  O656    1.952   .     S
Ti632  O642    1.952   .     S
Ti632  O647    1.980   .     S
Ti632  O112    1.980   1_565 S
Ti632  O657    1.952   .     S
Ti633  O643    1.952   .     S
Ti633  O653    1.980   .     S
Ti633  O658    1.952   .     S
Ti634  O644    1.952   .     S
Ti634  O649    1.980   .     S
Ti634  O114    1.980   1_565 S
Ti634  O659    1.952   .     S
Ti635  O645    1.952   .     S
Ti635  O655    1.980   .     S
Ti635  O660    1.952   .     S
Ti636  O646    1.952   .     S
Ti636  O676    1.952   .     S
Ti636  O651    1.952   .     S
Ti636  O681    1.952   .     S
Ti636  O657    1.980   .     S
Ti637  O641    1.980   .     S
Ti637  O647    1.952   .     S
Ti637  O677    1.952   .     S
Ti637  O652    1.952   .     S
Ti637  O682    1.952   .     S
Ti637  O658    1.980   .     S
Ti638  O642    1.980   .     S
Ti638  O648    1.952   .     S
Ti638  O678    1.952   .     S
Ti638  O653    1.952   .     S
Ti638  O683    1.952   .     S
Ti638  O659    1.980   .     S
Ti639  O643    1.980   .     S
Ti639  O649    1.952   .     S
Ti639  O679    1.952   .     S
Ti639  O654    1.952   .     S
Ti639  O684    1.952   .     S
Ti639  O660    1.980   .     S
Ti640  O644    1.980   .     S
Ti640  O650    1.952   .     S
Ti640  O680    1.952   .     S
Ti640  O655    1.952   .     S
Ti640  O685    1.952   .     S
O641   Ti661   1.952   .     S
O642   Ti662   1.952   .     S
O643   Ti663   1.952   .     S
O644   Ti664   1.952   .     S
O645   Ti665   1.952   .     S
O646   Ti91    1.980   1_565 S
O648   Ti93    1.980   1_565 S
O650   Ti95    1.980   1_565 S
O656   Ti661   1.952   .     S
O657   Ti662   1.952   .     S
O658   Ti663   1.952   .     S
O659   Ti664   1.952   .     S
O660   Ti665   1.952   .     S
Ti661  O671    1.952   .     S
Ti661  O681    1.980   .     S
Ti661  O686    1.952   .     S
Ti662  O672    1.952   .     S
Ti662  O677    1.980   .     S
Ti662  O142    1.980   1_565 S
Ti662  O687    1.952   .     S
Ti663  O673    1.952   .     S
Ti663  O683    1.980   .     S
Ti663  O688    1.952   .     S
Ti664  O674    1.952   .     S
Ti664  O679    1.980   .     S
Ti664  O144    1.980   1_565 S
Ti664  O689    1.952   .     S
Ti665  O675    1.952   .     S
Ti665  O685    1.980   .     S
Ti665  O690    1.952   .     S
Ti666  O676    1.952   .     S
Ti666  O706    1.952   .     S
Ti666  O681    1.952   .     S
Ti666  O711    1.952   .     S
Ti666  O687    1.980   .     S
Ti667  O671    1.980   .     S
Ti667  O677    1.952   .     S
Ti667  O707    1.952   .     S
Ti667  O682    1.952   .     S
Ti667  O712    1.952   .     S
Ti667  O688    1.980   .     S
Ti668  O672    1.980   .     S
Ti668  O678    1.952   .     S
Ti668  O708    1.952   .     S
Ti668  O683    1.952   .     S
Ti668  O713    1.952   .     S
Ti668  O689    1.980   .     S
Ti669  O673    1.980   .     S
Ti669  O679    1.952   .     S
Ti669  O709    1.952   .     S
Ti669  O684    1.952   .     S
Ti669  O714    1.952   .     S
Ti669  O690    1.980   .     S
Ti670  O674    1.980   .     S
Ti670  O680    1.952   .     S
Ti670  O710    1.952   .     S
Ti670  O685    1.952   .     S
Ti670  O715    1.952   .     S
O671   Ti691   1.952   .     S
O672   Ti692   1.952   .     S
O673   Ti693   1.952   .     S
O674   Ti694   1.952   .     S
O675   Ti695   1.952   .     S
O676   Ti121   1.980   1_565 S
O678   Ti123   1.980   1_565 S
O680   Ti125   1.980   1_565 S
O686   Ti691   1.952   .     S
O687   Ti692   1.952   .     S
O688   Ti693   1.952   .     S
O689   Ti694   1.952   .     S
O690   Ti695   1.952   .     S
Ti691  O701    1.952   .     S
Ti691  O711    1.980   .     S
Ti691  O716    1.952   .     S
Ti692  O702    1.952   .     S
Ti692  O707    1.980   .     S
Ti692  O172    1.980   1_565 S
Ti692  O717    1.952   .     S
Ti693  O703    1.952   .     S
Ti693  O713    1.980   .     S
Ti693  O718    1.952   .     S
Ti694  O704    1.952   .     S
Ti694  O709    1.980   .     S
Ti694  O174    1.980   1_565 S
Ti694  O719    1.952   .     S
Ti695  O705    1.952   .     S
Ti695  O715    1.980   .     S
Ti695  O720    1.952   .     S
Ti696  O706    1.952   .     S
Ti696  O556    1.952   1_655 S
Ti696  O711    1.952   .     S
Ti696  O561    1.952   1_655 S
Ti696  O717    1.980   .     S
Ti697  O701    1.980   .     S
Ti697  O707    1.952   .     S
Ti697  O557    1.952   1_655 S
Ti697  O712    1.952   .     S
Ti697  O562    1.952   1_655 S
Ti697  O718    1.980   .     S
Ti698  O702    1.980   .     S
Ti698  O708    1.952   .     S
Ti698  O558    1.952   1_655 S
Ti698  O713    1.952   .     S
Ti698  O563    1.952   1_655 S
Ti698  O719    1.980   .     S
Ti699  O703    1.980   .     S
Ti699  O709    1.952   .     S
Ti699  O559    1.952   1_655 S
Ti699  O714    1.952   .     S
Ti699  O564    1.952   1_655 S
Ti699  O720    1.980   .     S
Ti700  O704    1.980   .     S
Ti700  O710    1.952   .     S
Ti700  O560    1.952   1_655 S
Ti700  O715    1.952   .     S
Ti700  O565    1.952   1_655 S
O701   Ti541   1.952   1_655 S
O702   Ti542   1.952   1_655 S
O703   Ti543   1.952   1_655 S
O704   Ti544   1.952   1_655 S
O705   Ti545   1.952   1_655 S
O706   Ti151   1.980   1_565 S
O708   Ti153   1.980   1_565 S
O710   Ti155   1.980   1_565 S
O716   Ti541   1.952   1_655 S
O717   Ti542   1.952   1_655 S
O718   Ti543   1.952   1_655 S
O719   Ti544   1.952   1_655 S
O720   Ti545   1.952   1_655 S
